 10
 * E = -152.594333 hartree ; s = -1.6000 (bw160)
  C    -0.976112   -0.493646   -0.038929
  C    +0.146958   +0.527751   +0.026848
  O    +1.415734   -0.142446   -0.092198
  H    -2.500946   +0.516578   +0.045218
  H    -1.156920   -0.974466   -0.991681
  H    -1.149050   -1.105711   +0.837832
  H    +0.082021   +1.228046   -0.810623
  H    +0.087352   +1.109771   +0.955032
  H    +1.430066   -0.754604   +0.687863
  H    -3.095397   +0.908407   +0.080659
 10
 * E = -152.593183 hartree ; s = -1.5000 (bw150)
  C    -0.979933   -0.489637   -0.038627
  C    +0.146166   +0.528725   +0.026990
  O    +1.413815   -0.143371   -0.092359
  H    -2.480611   +0.503408   +0.044186
  H    -1.155477   -0.973524   -0.990854
  H    -1.147604   -1.104805   +0.837035
  H    +0.082685   +1.229164   -0.810442
  H    +0.087987   +1.110878   +0.955137
  H    +1.428620   -0.754670   +0.688363
  H    -3.075775   +0.895220   +0.079482
 10
 * E = -152.591931 hartree ; s = -1.4000 (bw140)
  C    -0.984109   -0.485509   -0.038315
  C    +0.145398   +0.529518   +0.027106
  O    +1.412095   -0.144181   -0.092487
  H    -2.460323   +0.490248   +0.043148
  H    -1.153898   -0.972762   -0.989922
  H    -1.146018   -1.104038   +0.836122
  H    +0.083381   +1.230118   -0.810274
  H    +0.088643   +1.111821   +0.955200
  H    +1.427458   -0.754768   +0.688778
  H    -3.056316   +0.882175   +0.078316
 10
 * E = -152.590570 hartree ; s = -1.3000 (bw130)
  C    -0.988634   -0.481274   -0.037992
  C    +0.144661   +0.530142   +0.027194
  O    +1.410573   -0.144883   -0.092588
  H    -2.440090   +0.477106   +0.042108
  H    -1.152166   -0.972185   -0.988874
  H    -1.144279   -1.103415   +0.835087
  H    +0.084096   +1.230917   -0.810111
  H    +0.089314   +1.112606   +0.955221
  H    +1.426551   -0.754895   +0.689112
  H    -3.037064   +0.869301   +0.077170
 10
 * E = -152.589092 hartree ; s = -1.2000 (bw120)
  C    -0.993498   -0.476949   -0.037660
  C    +0.143961   +0.530602   +0.027258
  O    +1.409243   -0.145478   -0.092662
  H    -2.419909   +0.463980   +0.041068
  H    -1.150271   -0.971787   -0.987707
  H    -1.142374   -1.102937   +0.833923
  H    +0.084825   +1.231575   -0.809952
  H    +0.089997   +1.113245   +0.955203
  H    +1.425870   -0.755044   +0.689372
  H    -3.018067   +0.856629   +0.076042
 10
 * E = -152.587487 hartree ; s = -1.1000 (bw110)
  C    -0.998690   -0.472546   -0.037317
  C    +0.143308   +0.530915   +0.027297
  O    +1.408098   -0.145979   -0.092715
  H    -2.399769   +0.450867   +0.040022
  H    -1.148199   -0.971563   -0.986419
  H    -1.140299   -1.102602   +0.832626
  H    +0.085548   +1.232106   -0.809794
  H    +0.090686   +1.113753   +0.955150
  H    +1.425381   -0.755211   +0.689566
  H    -2.999375   +0.844189   +0.074936
 10
 * E = -152.585751 hartree ; s = -1.0000 (bw100)
  C    -1.004195   -0.468082   -0.036965
  C    +0.142718   +0.531098   +0.027316
  O    +1.407132   -0.146391   -0.092750
  H    -2.379646   +0.437748   +0.038972
  H    -1.145945   -0.971503   -0.985005
  H    -1.138045   -1.102403   +0.831194
  H    +0.086257   +1.232521   -0.809637
  H    +0.091367   +1.114142   +0.955065
  H    +1.425047   -0.755384   +0.689705
  H    -2.981046   +0.832014   +0.073856
 10
 * E = -152.583876 hartree ; s = -0.9000 (bw90)
  C    -1.009999   -0.463574   -0.036605
  C    +0.142199   +0.531164   +0.027316
  O    +1.406329   -0.146722   -0.092768
  H    -2.359493   +0.424597   +0.037914
  H    -1.143504   -0.971603   -0.983466
  H    -1.135611   -1.102338   +0.829623
  H    +0.086934   +1.232836   -0.809479
  H    +0.092025   +1.114427   +0.954952
  H    +1.424834   -0.755558   +0.689796
  H    -2.963153   +0.820153   +0.072805
 10
 * E = -152.581860 hartree ; s = -0.8000 (bw80)
  C    -1.016085   -0.459038   -0.036240
  C    +0.141771   +0.531131   +0.027302
  O    +1.405679   -0.146982   -0.092774
  H    -2.339236   +0.411368   +0.036848
  H    -1.140875   -0.971852   -0.981806
  H    -1.132993   -1.102396   +0.827916
  H    +0.087565   +1.233058   -0.809319
  H    +0.092645   +1.114623   +0.954820
  H    +1.424709   -0.755723   +0.689848
  H    -2.945799   +0.808671   +0.071790
 10
 * E = -152.579703 hartree ; s = -0.7000 (bw70)
  C    -1.022434   -0.454494   -0.035868
  C    +0.141449   +0.531012   +0.027278
  O    +1.405166   -0.147175   -0.092771
  H    -2.318719   +0.397957   +0.035763
  H    -1.138060   -0.972243   -0.980031
  H    -1.130197   -1.102575   +0.826083
  H    +0.088135   +1.233201   -0.809159
  H    +0.093206   +1.114741   +0.954672
  H    +1.424645   -0.755875   +0.689868
  H    -2.929174   +0.797695   +0.070820
 10
 * E = -152.577408 hartree ; s = -0.6000 (bw60)
  C    -1.029012   -0.449963   -0.035498
  C    +0.141250   +0.530823   +0.027247
  O    +1.404777   -0.147308   -0.092761
  H    -2.297570   +0.384128   +0.034637
  H    -1.135075   -0.972770   -0.978168
  H    -1.127234   -1.102874   +0.824150
  H    +0.088625   +1.233273   -0.809003
  H    +0.093695   +1.114793   +0.954518
  H    +1.424616   -0.755999   +0.689859
  H    -2.913764   +0.787532   +0.069923
 10
 * E = -152.574977 hartree ; s = -0.5000 (bw50)
  C    -1.035709   -0.445503   -0.035127
  C    +0.141188   +0.530580   +0.027209
  O    +1.404496   -0.147388   -0.092751
  H    -2.274933   +0.369321   +0.033424
  H    -1.131968   -0.973430   -0.976283
  H    -1.124155   -1.103295   +0.822177
  H    +0.089020   +1.233285   -0.808856
  H    +0.094088   +1.114794   +0.954364
  H    +1.424596   -0.756094   +0.689831
  H    -2.900845   +0.779017   +0.069170
 10
 * E = -152.572393 hartree ; s = -0.4000 (bw40)
  C    -1.042205   -0.441300   -0.034775
  C    +0.141252   +0.530304   +0.027170
  O    +1.404310   -0.147423   -0.092740
  H    -2.249712   +0.352819   +0.032055
  H    -1.128908   -0.974184   -0.974502
  H    -1.121117   -1.103823   +0.820298
  H    +0.089306   +1.233251   -0.808725
  H    +0.094369   +1.114761   +0.954225
  H    +1.424571   -0.756154   +0.689785
  H    -2.892932   +0.773794   +0.068704
 10
 * E = -152.569653 hartree ; s = -0.3000 (bw30)
  C    -1.047968   -0.437642   -0.034467
  C    +0.141397   +0.530030   +0.027136
  O    +1.404201   -0.147423   -0.092729
  H    -2.222206   +0.334818   +0.030548
  H    -1.126150   -0.974943   -0.972981
  H    -1.118380   -1.104385   +0.818681
  H    +0.089494   +1.233199   -0.808618
  H    +0.094551   +1.114715   +0.954112
  H    +1.424530   -0.756186   +0.689733
  H    -2.891909   +0.773093   +0.068633
 10
 * E = -152.567019 hartree ; s = -0.2000 (bw20)
  C    -1.052835   -0.434589   -0.034209
  C    +0.141568   +0.529774   +0.027106
  O    +1.404140   -0.147406   -0.092719
  H    -2.193947   +0.316321   +0.028990
  H    -1.123777   -0.975642   -0.971732
  H    -1.116027   -1.104921   +0.817343
  H    +0.089616   +1.233143   -0.808535
  H    +0.094668   +1.114673   +0.954023
  H    +1.424479   -0.756200   +0.689678
  H    -2.896599   +0.776141   +0.068890
 10
 * E = -152.565062 hartree ; s = -0.1000 (bw10)
  C    -1.057019   -0.431982   -0.033988
  C    +0.141738   +0.529533   +0.027078
  O    +1.404104   -0.147383   -0.092709
  H    -2.165796   +0.297889   +0.027433
  H    -1.121677   -0.976280   -0.970661
  H    -1.113942   -1.105420   +0.816189
  H    +0.089703   +1.233089   -0.808465
  H    +0.094752   +1.114636   +0.953948
  H    +1.424420   -0.756209   +0.689620
  H    -2.904856   +0.781528   +0.069348
 10
 * E = -152.564335 hartree ; s =  0.0000 (saddle)
  C    -1.060711   -0.429684   -0.033790
  C    +0.141898   +0.529285   +0.027051
  O    +1.404080   -0.147355   -0.092694
  H    -2.137996   +0.279686   +0.025896
  H    -1.119709   -0.976872   -0.969673
  H    -1.111982   -1.105892   +0.815122
  H    +0.089773   +1.233030   -0.808404
  H    +0.094815   +1.114607   +0.953874
  H    +1.424348   -0.756198   +0.689527
  H    -2.915420   +0.788430   +0.069936
 10
 * E = -152.565082 hartree ; s =  0.1000 (fw10)
  C    -1.064129   -0.427594   -0.033612
  C    +0.142072   +0.529062   +0.027029
  O    +1.404062   -0.147324   -0.092688
  H    -2.110509   +0.261663   +0.024359
  H    -1.117823   -0.977452   -0.968704
  H    -1.110116   -1.106331   +0.814090
  H    +0.089851   +1.232997   -0.808335
  H    +0.094889   +1.114575   +0.953820
  H    +1.424296   -0.756208   +0.689509
  H    -2.927285   +0.796187   +0.070597
 10
 * E = -152.567153 hartree ; s =  0.2000 (fw20)
  C    -1.067212   -0.425711   -0.033449
  C    +0.142237   +0.528818   +0.027002
  O    +1.404050   -0.147294   -0.092678
  H    -2.083522   +0.243965   +0.022852
  H    -1.115886   -0.978021   -0.967705
  H    -1.108197   -1.106764   +0.813024
  H    +0.089923   +1.232953   -0.808265
  H    +0.094959   +1.114544   +0.953756
  H    +1.424227   -0.756208   +0.689450
  H    -2.940704   +0.804963   +0.071347
 10
 * E = -152.570093 hartree ; s =  0.3000 (fw30)
  C    -1.069944   -0.424062   -0.033305
  C    +0.142407   +0.528552   +0.026972
  O    +1.404035   -0.147264   -0.092668
  H    -2.057241   +0.226713   +0.021381
  H    -1.113814   -0.978615   -0.966635
  H    -1.106144   -1.107212   +0.811885
  H    +0.090003   +1.232901   -0.808190
  H    +0.095034   +1.114506   +0.953681
  H    +1.424154   -0.756215   +0.689385
  H    -2.955803   +0.814841   +0.072189
 10
 * E = -152.573318 hartree ; s =  0.4000 (fw40)
  C    -1.072181   -0.422736   -0.033186
  C    +0.142589   +0.528253   +0.026941
  O    +1.404019   -0.147232   -0.092658
  H    -2.032211   +0.210244   +0.019972
  H    -1.111476   -0.979278   -0.965457
  H    -1.103827   -1.107715   +0.810625
  H    +0.090088   +1.232831   -0.808100
  H    +0.095114   +1.114452   +0.953587
  H    +1.424074   -0.756231   +0.689311
  H    -2.973208   +0.826232   +0.073160
 10
 * E = -152.576319 hartree ; s =  0.5000 (fw50)
  C    -1.073625   -0.421923   -0.033108
  C    +0.142802   +0.527905   +0.026902
  O    +1.404004   -0.147198   -0.092647
  H    -2.009671   +0.195327   +0.018689
  H    -1.108673   -0.980110   -0.964171
  H    -1.101060   -1.108372   +0.809232
  H    +0.090184   +1.232726   -0.807991
  H    +0.095203   +1.114366   +0.953466
  H    +1.423988   -0.756264   +0.689221
  H    -2.993961   +0.839820   +0.074318
 10
 * E = -152.578854 hartree ; s =  0.6000 (fw60)
  C    -1.073860   -0.421876   -0.033091
  C    +0.143075   +0.527502   +0.026855
  O    +1.404002   -0.147168   -0.092634
  H    -1.991919   +0.183364   +0.017653
  H    -1.105207   -0.981269   -0.962892
  H    -1.097643   -1.109348   +0.807791
  H    +0.090285   +1.232562   -0.807865
  H    +0.095295   +1.114221   +0.953315
  H    +1.423900   -0.756328   +0.689110
  H    -3.018918   +0.856168   +0.075711
 10
 * E = -152.580994 hartree ; s =  0.7000 (fw70)
  C    -1.072809   -0.422637   -0.033138
  C    +0.143432   +0.527075   +0.026805
  O    +1.404046   -0.147144   -0.092618
  H    -1.980708   +0.175337   +0.016947
  H    -1.101096   -0.982856   -0.961872
  H    -1.093595   -1.110778   +0.806542
  H    +0.090380   +1.232323   -0.807747
  H    +0.095376   +1.113996   +0.953145
  H    +1.423833   -0.756427   +0.688979
  H    -3.047140   +0.874665   +0.077287
 10
 * E = -152.582889 hartree ; s =  0.8000 (fw80)
  C    -1.071009   -0.423882   -0.033225
  C    +0.143877   +0.526673   +0.026756
  O    +1.404166   -0.147138   -0.092606
  H    -1.974688   +0.170219   +0.016491
  H    -1.096560   -0.984793   -0.961225
  H    -1.089135   -1.112598   +0.805606
  H    +0.090464   +1.232017   -0.807663
  H    +0.095440   +1.113710   +0.952991
  H    +1.423805   -0.756560   +0.688839
  H    -3.076621   +0.894006   +0.078934
 10
 * E = -152.584607 hartree ; s =  0.9000 (fw90)
  C    -1.068997   -0.425307   -0.033327
  C    +0.144401   +0.526318   +0.026714
  O    +1.404381   -0.147146   -0.092596
  H    -1.971447   +0.166353   +0.016151
  H    -1.091763   -0.986920   -0.960835
  H    -1.084421   -1.114641   +0.804901
  H    +0.090552   +1.231669   -0.807628
  H    +0.095503   +1.113386   +0.952870
  H    +1.423832   -0.756730   +0.688687
  H    -3.106379   +0.913553   +0.080600
 10
 * E = -152.586169 hartree ; s =  1.0000 (fw100)
  C    -1.067013   -0.426784   -0.033436
  C    +0.144985   +0.526014   +0.026674
  O    +1.404698   -0.147171   -0.092586
  H    -1.969600   +0.162793   +0.015847
  H    -1.086794   -0.989123   -0.960574
  H    -1.079547   -1.116767   +0.804313
  H    +0.090662   +1.231301   -0.807641
  H    +0.095596   +1.113050   +0.952787
  H    +1.423926   -0.756935   +0.688528
  H    -3.136186   +0.933160   +0.082270
 10
 * E = -152.587587 hartree ; s =  1.1000 (fw110)
  C    -1.065124   -0.428275   -0.033546
  C    +0.145606   +0.525759   +0.026641
  O    +1.405116   -0.147211   -0.092576
  H    -1.968574   +0.159163   +0.015546
  H    -1.081729   -0.991336   -0.960368
  H    -1.074583   -1.118905   +0.803781
  H    +0.090817   +1.230931   -0.807694
  H    +0.095734   +1.112720   +0.952737
  H    +1.424097   -0.757180   +0.688358
  H    -3.165989   +0.952801   +0.083940
 10
 * E = -152.588876 hartree ; s =  1.2000 (fw120)
  C    -1.063338   -0.429776   -0.033656
  C    +0.146249   +0.525549   +0.026611
  O    +1.405631   -0.147261   -0.092566
  H    -1.968131   +0.155339   +0.015235
  H    -1.076631   -0.993530   -0.960188
  H    -1.069597   -1.121022   +0.803282
  H    +0.091028   +1.230575   -0.807776
  H    +0.095932   +1.112409   +0.952713
  H    +1.424352   -0.757460   +0.688178
  H    -3.195776   +0.972475   +0.085613
 10
 * E = -152.590043 hartree ; s =  1.3000 (fw130)
  C    -1.061636   -0.431286   -0.033766
  C    +0.146905   +0.525376   +0.026581
  O    +1.406238   -0.147316   -0.092555
  H    -1.968137   +0.151290   +0.014909
  H    -1.071561   -0.995695   -0.960025
  H    -1.064643   -1.123104   +0.802812
  H    +0.091305   +1.230242   -0.807880
  H    +0.096198   +1.112123   +0.952705
  H    +1.424696   -0.757773   +0.687985
  H    -3.225539   +0.992182   +0.087288
 10
 * E = -152.591100 hartree ; s =  1.4000 (fw140)
  C    -1.060005   -0.432811   -0.033877
  C    +0.147565   +0.525229   +0.026552
  O    +1.406926   -0.147371   -0.092541
  H    -1.968486   +0.147033   +0.014566
  H    -1.066567   -0.997828   -0.959876
  H    -1.059769   -1.125153   +0.802368
  H    +0.091647   +1.229933   -0.807998
  H    +0.096534   +1.111865   +0.952704
  H    +1.425128   -0.758113   +0.687780
  H    -3.255279   +1.011927   +0.088968
 10
 * E = -152.592054 hartree ; s =  1.5000 (fw150)
  C    -1.058425   -0.434355   -0.033991
  C    +0.148224   +0.525098   +0.026526
  O    +1.407685   -0.147417   -0.092522
  H    -1.969079   +0.142606   +0.014207
  H    -1.061684   -0.999935   -0.959743
  H    -1.055015   -1.127168   +0.801948
  H    +0.092048   +1.229641   -0.808119
  H    +0.096929   +1.111634   +0.952704
  H    +1.425647   -0.758474   +0.687561
  H    -3.285000   +1.031716   +0.090648
 10
 * E = -152.592914 hartree ; s =  1.6000 (fw160)
  C    -1.056883   -0.435928   -0.034109
  C    +0.148881   +0.524969   +0.026501
  O    +1.408506   -0.147445   -0.092501
  H    -1.969825   +0.138062   +0.013834
  H    -1.056945   -1.002022   -0.959628
  H    -1.050410   -1.129158   +0.801555
  H    +0.092496   +1.229362   -0.808240
  H    +0.097369   +1.111424   +0.952700
  H    +1.426250   -0.758845   +0.687326
  H    -3.314704   +1.051555   +0.092334
