 10
 * E = -152.596424 hartree ; s = -1.7000 (bw170)
  C    -1.163218   -0.072434   -0.283331
  C    +0.199397   -0.526779   +0.227427
  O    +1.270333   +0.397420   -0.015829
  H    -1.494193   +1.564397   +0.623033
  H    -2.028750   -0.619371   +0.068614
  H    -1.222196   +0.304649   -1.297347
  H    +0.158651   -0.679797   +1.310062
  H    +0.419665   -1.504537   -0.227402
  H    +1.266200   +0.516312   -1.000030
  H    -1.624175   +2.178923   +0.963736
 10
 * E = -152.595311 hartree ; s = -1.6000 (bw160)
  C    -1.163809   -0.067613   -0.280156
  C    +0.198496   -0.525141   +0.227867
  O    +1.270782   +0.397092   -0.015785
  H    -1.489368   +1.540713   +0.609953
  H    -2.027287   -0.620012   +0.068337
  H    -1.221595   +0.303194   -1.296581
  H    +0.159905   -0.680959   +1.310141
  H    +0.414538   -1.502174   -0.230425
  H    +1.265858   +0.516747   -0.999882
  H    -1.619216   +2.155908   +0.950869
 10
 * E = -152.594088 hartree ; s = -1.5000 (bw150)
  C    -1.164377   -0.062665   -0.276924
  C    +0.197621   -0.523596   +0.228274
  O    +1.271152   +0.396785   -0.015748
  H    -1.484531   +1.517045   +0.596884
  H    -2.025690   -0.620754   +0.067892
  H    -1.220910   +0.301515   -1.295843
  H    +0.161132   -0.682102   +1.310190
  H    +0.409533   -1.499916   -0.233345
  H    +1.265576   +0.517072   -0.999757
  H    -1.614310   +2.133033   +0.938096
 10
 * E = -152.592748 hartree ; s = -1.4000 (bw140)
  C    -1.164937   -0.057579   -0.273637
  C    +0.196778   -0.522157   +0.228643
  O    +1.271451   +0.396501   -0.015718
  H    -1.479678   +1.493379   +0.583817
  H    -2.023969   -0.621582   +0.067275
  H    -1.220172   +0.299624   -1.295128
  H    +0.162321   -0.683203   +1.310207
  H    +0.404717   -1.497790   -0.236124
  H    +1.265351   +0.517304   -0.999652
  H    -1.609457   +2.110321   +0.925424
 10
 * E = -152.591283 hartree ; s = -1.3000 (bw130)
  C    -1.165508   -0.052349   -0.270298
  C    +0.195971   -0.520836   +0.228966
  O    +1.271686   +0.396239   -0.015692
  H    -1.474809   +1.469708   +0.570748
  H    -2.022139   -0.622489   +0.066482
  H    -1.219405   +0.297524   -1.294427
  H    +0.163456   -0.684246   +1.310195
  H    +0.400153   -1.495817   -0.238734
  H    +1.265177   +0.517462   -0.999565
  H    -1.604660   +2.087805   +0.912876
 10
 * E = -152.589687 hartree ; s = -1.2000 (bw120)
  C    -1.166108   -0.046974   -0.266912
  C    +0.195210   -0.519645   +0.229237
  O    +1.271863   +0.396000   -0.015671
  H    -1.469921   +1.446011   +0.557668
  H    -2.020209   -0.623466   +0.065512
  H    -1.218629   +0.295224   -1.293739
  H    +0.164524   -0.685215   +1.310153
  H    +0.395897   -1.494014   -0.241149
  H    +1.265049   +0.517562   -0.999491
  H    -1.599921   +2.065521   +0.900470
 10
 * E = -152.587951 hartree ; s = -1.1000 (bw110)
  C    -1.166754   -0.041444   -0.263481
  C    +0.194498   -0.518589   +0.229458
  O    +1.271992   +0.395784   -0.015651
  H    -1.465015   +1.422274   +0.544568
  H    -2.018193   -0.624505   +0.064367
  H    -1.217859   +0.292732   -1.293055
  H    +0.165517   -0.686102   +1.310085
  H    +0.391998   -1.492395   -0.243350
  H    +1.264960   +0.517617   -0.999429
  H    -1.595251   +2.043528   +0.888238
 10
 * E = -152.586071 hartree ; s = -1.0000 (bw100)
  C    -1.167466   -0.035767   -0.260012
  C    +0.193841   -0.517674   +0.229625
  O    +1.272081   +0.395594   -0.015631
  H    -1.460082   +1.398475   +0.531436
  H    -2.016102   -0.625601   +0.063053
  H    -1.217106   +0.290062   -1.292374
  H    +0.166427   -0.686902   +1.309994
  H    +0.388497   -1.490972   -0.245326
  H    +1.264903   +0.517637   -0.999377
  H    -1.590661   +2.021895   +0.876219
 10
 * E = -152.584044 hartree ; s = -0.9000 (bw90)
  C    -1.168255   -0.029942   -0.256511
  C    +0.193244   -0.516907   +0.229742
  O    +1.272138   +0.395427   -0.015611
  H    -1.455123   +1.374580   +0.518253
  H    -2.013941   -0.626746   +0.061576
  H    -1.216377   +0.287224   -1.291690
  H    +0.167250   -0.687608   +1.309888
  H    +0.385420   -1.489747   -0.247074
  H    +1.264869   +0.517628   -0.999333
  H    -1.586168   +2.000720   +0.864465
 10
 * E = -152.581867 hartree ; s = -0.8000 (bw80)
  C    -1.169134   -0.023975   -0.252987
  C    +0.192713   -0.516286   +0.229808
  O    +1.272167   +0.395286   -0.015592
  H    -1.450128   +1.350544   +0.504992
  H    -2.011720   -0.627936   +0.059948
  H    -1.215672   +0.284233   -1.291001
  H    +0.167977   -0.688221   +1.309765
  H    +0.382782   -1.488722   -0.248587
  H    +1.264850   +0.517596   -0.999298
  H    -1.581804   +1.980139   +0.853051
 10
 * E = -152.579546 hartree ; s = -0.7000 (bw70)
  C    -1.170111   -0.017875   -0.249448
  C    +0.192250   -0.515812   +0.229827
  O    +1.272174   +0.395167   -0.015575
  H    -1.445084   +1.326295   +0.491614
  H    -2.009454   -0.629168   +0.058188
  H    -1.214990   +0.281108   -1.290311
  H    +0.168606   -0.688740   +1.309633
  H    +0.380592   -1.487892   -0.249872
  H    +1.264840   +0.517551   -0.999270
  H    -1.577607   +1.960352   +0.842089
 10
 * E = -152.577090 hartree ; s = -0.6000 (bw60)
  C    -1.171192   -0.011660   -0.245899
  C    +0.191858   -0.515482   +0.229802
  O    +1.272166   +0.395070   -0.015559
  H    -1.439966   +1.301712   +0.478053
  H    -2.007161   -0.630441   +0.056313
  H    -1.214334   +0.277872   -1.289629
  H    +0.169135   -0.689169   +1.309494
  H    +0.378845   -1.487245   -0.250934
  H    +1.264838   +0.517492   -0.999251
  H    -1.573652   +1.941705   +0.831767
 10
 * E = -152.574522 hartree ; s = -0.5000 (bw50)
  C    -1.172372   -0.005356   -0.242361
  C    +0.191544   -0.515293   +0.229738
  O    +1.272146   +0.394996   -0.015546
  H    -1.434727   +1.276556   +0.464177
  H    -2.004871   -0.631758   +0.054352
  H    -1.213701   +0.274558   -1.288979
  H    +0.169563   -0.689510   +1.309354
  H    +0.377527   -1.486767   -0.251779
  H    +1.264833   +0.517429   -0.999237
  H    -1.570081   +1.924903   +0.822472
 10
 * E = -152.571876 hartree ; s = -0.4000 (bw40)
  C    -1.173631   +0.000956   -0.238869
  C    +0.191306   -0.515240   +0.229638
  O    +1.272120   +0.394942   -0.015534
  H    -1.429270   +1.250355   +0.449723
  H    -2.002642   -0.633121   +0.052354
  H    -1.213094   +0.271227   -1.288402
  H    +0.169888   -0.689763   +1.309214
  H    +0.376615   -1.486433   -0.252411
  H    +1.264823   +0.517359   -0.999227
  H    -1.567245   +1.911603   +0.815120
 10
 * E = -152.569211 hartree ; s = -0.3000 (bw30)
  C    -1.174904   +0.007047   -0.235539
  C    +0.191141   -0.515305   +0.229514
  O    +1.272090   +0.394907   -0.015524
  H    -1.423485   +1.222600   +0.434407
  H    -2.000578   -0.634501   +0.050416
  H    -1.212528   +0.268022   -1.287948
  H    +0.170119   -0.689937   +1.309080
  H    +0.376071   -1.486210   -0.252841
  H    +1.264805   +0.517289   -0.999219
  H    -1.565809   +1.904997   +0.811473
 10
 * E = -152.566673 hartree ; s = -0.2000 (bw20)
  C    -1.176089   +0.012529   -0.232569
  C    +0.191033   -0.515444   +0.229377
  O    +1.272060   +0.394888   -0.015514
  H    -1.417471   +1.193732   +0.418474
  H    -1.998796   -0.635814   +0.048671
  H    -1.212027   +0.265138   -1.287639
  H    +0.170268   -0.690045   +1.308960
  H    +0.375816   -1.486063   -0.253094
  H    +1.264781   +0.517220   -0.999209
  H    -1.566333   +1.907761   +0.813007
 10
 * E = -152.564693 hartree ; s = -0.1000 (bw10)
  C    -1.177128   +0.017242   -0.230028
  C    +0.190961   -0.515617   +0.229242
  O    +1.272038   +0.394879   -0.015504
  H    -1.411477   +1.164950   +0.402587
  H    -1.997294   -0.637002   +0.047157
  H    -1.211590   +0.262632   -1.287439
  H    +0.170366   -0.690110   +1.308855
  H    +0.375737   -1.485959   -0.253229
  H    +1.264751   +0.517156   -0.999199
  H    -1.568567   +1.918718   +0.819074
 10
 * E = -152.563913 hartree ; s =  0.0000 (saddle)
  C    -1.178039   +0.021317   -0.227842
  C    +0.190900   -0.515799   +0.229111
  O    +1.272018   +0.394879   -0.015497
  H    -1.405620   +1.136869   +0.387086
  H    -1.995959   -0.638097   +0.045807
  H    -1.211185   +0.260373   -1.287291
  H    +0.170436   -0.690151   +1.308766
  H    +0.375746   -1.485878   -0.253300
  H    +1.264722   +0.517102   -0.999182
  H    -1.571955   +1.935197   +0.828193
 10
 * E = -152.564756 hartree ; s =  0.1000 (fw10)
  C    -1.178870   +0.025016   -0.225861
  C    +0.190847   -0.515980   +0.228985
  O    +1.271998   +0.394879   -0.015493
  H    -1.399905   +1.109339   +0.371877
  H    -1.994713   -0.639089   +0.044542
  H    -1.210826   +0.258300   -1.287123
  H    +0.170513   -0.690180   +1.308683
  H    +0.375783   -1.485801   -0.253345
  H    +1.264691   +0.517022   -0.999178
  H    -1.575912   +1.954442   +0.838836
 10
 * E = -152.567165 hartree ; s =  0.2000 (fw20)
  C    -1.179628   +0.028361   -0.224078
  C    +0.190788   -0.516165   +0.228855
  O    +1.271978   +0.394879   -0.015493
  H    -1.394336   +1.082555   +0.357080
  H    -1.993453   -0.640067   +0.043291
  H    -1.210454   +0.256235   -1.286938
  H    +0.170583   -0.690201   +1.308602
  H    +0.375831   -1.485731   -0.253384
  H    +1.264661   +0.516947   -0.999172
  H    -1.580428   +1.976381   +0.850971
 10
 * E = -152.570674 hartree ; s =  0.3000 (fw30)
  C    -1.180323   +0.031394   -0.222471
  C    +0.190722   -0.516352   +0.228722
  O    +1.271955   +0.394879   -0.015493
  H    -1.388940   +1.056582   +0.342725
  H    -1.992119   -0.641060   +0.041995
  H    -1.210060   +0.254096   -1.286713
  H    +0.170661   -0.690221   +1.308512
  H    +0.375866   -1.485661   -0.253431
  H    +1.264635   +0.516867   -0.999171
  H    -1.585426   +2.000652   +0.864398
 10
 * E = -152.574617 hartree ; s =  0.4000 (fw40)
  C    -1.180937   +0.034042   -0.221077
  C    +0.190646   -0.516544   +0.228578
  O    +1.271925   +0.394879   -0.015484
  H    -1.383800   +1.031807   +0.329015
  H    -1.990646   -0.642126   +0.040593
  H    -1.209620   +0.251774   -1.286443
  H    +0.170751   -0.690245   +1.308416
  H    +0.375871   -1.485594   -0.253505
  H    +1.264617   +0.516776   -0.999171
  H    -1.590997   +2.027720   +0.879375
 10
 * E = -152.578384 hartree ; s =  0.5000 (fw50)
  C    -1.181426   +0.036125   -0.219994
  C    +0.190557   -0.516749   +0.228416
  O    +1.271883   +0.394873   -0.015474
  H    -1.379109   +1.009113   +0.316429
  H    -1.988966   -0.643365   +0.039010
  H    -1.209101   +0.249130   -1.286150
  H    +0.170852   -0.690278   +1.308298
  H    +0.375829   -1.485536   -0.253628
  H    +1.264612   +0.516673   -0.999171
  H    -1.597351   +2.058606   +0.896468
 10
 * E = -152.581603 hartree ; s =  0.6000 (fw60)
  C    -1.181710   +0.037331   -0.219387
  C    +0.190459   -0.516978   +0.228231
  O    +1.271823   +0.394860   -0.015464
  H    -1.375255   +0.990210   +0.305874
  H    -1.987049   -0.644952   +0.037185
  H    -1.208452   +0.246008   -1.285948
  H    +0.170963   -0.690329   +1.308146
  H    +0.375733   -1.485503   -0.253826
  H    +1.264632   +0.516552   -0.999173
  H    -1.604730   +2.094516   +0.916343
 10
 * E = -152.584238 hartree ; s =  0.7000 (fw70)
  C    -1.181714   +0.037402   -0.219387
  C    +0.190377   -0.517247   +0.228018
  O    +1.271735   +0.394834   -0.015456
  H    -1.372736   +0.977137   +0.298422
  H    -1.985003   -0.647092   +0.035146
  H    -1.207627   +0.242368   -1.286063
  H    +0.171070   -0.690414   +1.307953
  H    +0.375603   -1.485528   -0.254111
  H    +1.264689   +0.516417   -0.999183
  H    -1.613104   +2.135316   +0.938935
 10
 * E = -152.586447 hartree ; s =  0.8000 (fw80)
  C    -1.181473   +0.036532   -0.219885
  C    +0.190353   -0.517572   +0.227785
  O    +1.271615   +0.394794   -0.015456
  H    -1.371662   +0.969922   +0.294017
  H    -1.983009   -0.649848   +0.033032
  H    -1.206622   +0.238365   -1.286677
  H    +0.171152   -0.690552   +1.307723
  H    +0.375508   -1.485647   -0.254464
  H    +1.264781   +0.516276   -0.999201
  H    -1.622007   +2.178753   +0.962998
 10
 * E = -152.588355 hartree ; s =  0.9000 (fw90)
  C    -1.181121   +0.035219   -0.220620
  C    +0.190418   -0.517963   +0.227540
  O    +1.271471   +0.394742   -0.015456
  H    -1.371667   +0.966374   +0.291401
  H    -1.981111   -0.653091   +0.030944
  H    -1.205454   +0.234159   -1.287735
  H    +0.171207   -0.690762   +1.307471
  H    +0.375515   -1.485873   -0.254847
  H    +1.264902   +0.516128   -0.999219
  H    -1.631038   +2.222894   +0.987465
 10
 * E = -152.590015 hartree ; s =  1.0000 (fw100)
  C    -1.180759   +0.033802   -0.221426
  C    +0.190580   -0.518423   +0.227290
  O    +1.271308   +0.394678   -0.015457
  H    -1.372397   +0.964535   +0.289470
  H    -1.979235   -0.656638   +0.028909
  H    -1.204143   +0.229829   -1.289055
  H    +0.171251   -0.691067   +1.307204
  H    +0.375654   -1.486201   -0.255243
  H    +1.265039   +0.515974   -0.999236
  H    -1.640065   +2.267126   +1.012000
 10
 * E = -152.591459 hartree ; s =  1.1000 (fw110)
  C    -1.180435   +0.032407   -0.222246
  C    +0.190831   -0.518941   +0.227045
  O    +1.271132   +0.394602   -0.015462
  H    -1.373676   +0.963437   +0.287673
  H    -1.977331   -0.660340   +0.026936
  H    -1.202711   +0.225430   -1.290486
  H    +0.171313   -0.691482   +1.306934
  H    +0.375925   -1.486609   -0.255645
  H    +1.265186   +0.515803   -0.999250
  H    -1.649061   +2.311335   +1.036546
 10
 * E = -152.592710 hartree ; s =  1.2000 (fw120)
  C    -1.180154   +0.031052   -0.223066
  C    +0.191153   -0.519503   +0.226810
  O    +1.270954   +0.394514   -0.015472
  H    -1.375410   +0.962685   +0.285799
  H    -1.975392   -0.664089   +0.025041
  H    -1.201194   +0.221024   -1.291952
  H    +0.171419   -0.692021   +1.306668
  H    +0.376317   -1.487066   -0.256057
  H    +1.265327   +0.515607   -0.999271
  H    -1.658020   +2.355514   +1.061100
 10
 * E = -152.593791 hartree ; s =  1.3000 (fw130)
  C    -1.179913   +0.029720   -0.223892
  C    +0.191526   -0.520090   +0.226595
  O    +1.270788   +0.394422   -0.015482
  H    -1.377530   +0.962100   +0.283779
  H    -1.973456   -0.667809   +0.023237
  H    -1.199635   +0.216667   -1.293412
  H    +0.171592   -0.692688   +1.306410
  H    +0.376809   -1.487545   -0.256481
  H    +1.265457   +0.515382   -0.999294
  H    -1.666936   +2.399667   +1.085668
 10
 * E = -152.594722 hartree ; s =  1.4000 (fw140)
  C    -1.179705   +0.028387   -0.224736
  C    +0.191938   -0.520686   +0.226403
  O    +1.270642   +0.394322   -0.015495
  H    -1.379942   +0.961585   +0.281603
  H    -1.971571   -0.671451   +0.021531
  H    -1.198076   +0.212402   -1.294858
  H    +0.171843   -0.693471   +1.306163
  H    +0.377382   -1.488016   -0.256919
  H    +1.265581   +0.515134   -0.999320
  H    -1.675806   +2.443806   +1.110260
 10
 * E = -152.595519 hartree ; s =  1.5000 (fw150)
  C    -1.179528   +0.027022   -0.225604
  C    +0.192368   -0.521271   +0.226237
  O    +1.270524   +0.394220   -0.015505
  H    -1.382544   +0.961067   +0.279287
  H    -1.969786   -0.674981   +0.019922
  H    -1.196556   +0.208258   -1.296288
  H    +0.172171   -0.694351   +1.305934
  H    +0.378019   -1.488455   -0.257370
  H    +1.265701   +0.514865   -0.999346
  H    -1.684631   +2.487944   +1.134883
