 10
 * E = -152.596080 hartree ; s = -1.5000 (bw150)
  C    -1.175815   -0.427085   -0.017766
  C    +0.027361   +0.538777   +0.043314
  O    +1.287299   -0.134469   -0.076016
  H    -2.099791   +0.132575   +0.028699
  H    -1.161575   -0.995699   -0.942067
  H    -1.156050   -1.122291   +0.816537
  H    -0.028472   +1.242655   -0.791833
  H    -0.023544   +1.124930   +0.969646
  H    +1.305252   -0.746775   +0.703145
  H    -3.591689   +1.169010   +0.117876
 10
 * E = -152.595377 hartree ; s = -1.4000 (bw140)
  C    -1.177181   -0.425351   -0.017644
  C    +0.026861   +0.538826   +0.043315
  O    +1.286523   -0.134565   -0.076016
  H    -2.098721   +0.137164   +0.029174
  H    -1.165608   -0.993610   -0.942135
  H    -1.159832   -1.120384   +0.816783
  H    -0.028765   +1.242821   -0.791750
  H    -0.023847   +1.125035   +0.969628
  H    +1.304616   -0.746522   +0.703403
  H    -3.549150   +1.140199   +0.115426
 10
 * E = -152.594551 hartree ; s = -1.3000 (bw130)
  C    -1.178566   -0.423664   -0.017524
  C    +0.026350   +0.538810   +0.043315
  O    +1.285811   -0.134608   -0.076016
  H    -2.097379   +0.142112   +0.029649
  H    -1.170072   -0.991509   -0.942229
  H    -1.164059   -1.118439   +0.817091
  H    -0.029135   +1.242936   -0.791656
  H    -0.024224   +1.125079   +0.969608
  H    +1.304072   -0.746219   +0.703661
  H    -3.506633   +1.111504   +0.112987
 10
 * E = -152.593587 hartree ; s = -1.2000 (bw120)
  C    -1.179965   -0.422041   -0.017409
  C    +0.025829   +0.538772   +0.043314
  O    +1.285162   -0.134615   -0.076015
  H    -2.095826   +0.147332   +0.030121
  H    -1.174965   -0.989397   -0.942361
  H    -1.168730   -1.116461   +0.817460
  H    -0.029556   +1.243039   -0.791556
  H    -0.024648   +1.125105   +0.969585
  H    +1.303595   -0.745880   +0.703921
  H    -3.464133   +1.082925   +0.110558
 10
 * E = -152.592464 hartree ; s = -1.1000 (bw110)
  C    -1.181383   -0.420492   -0.017299
  C    +0.025297   +0.538752   +0.043314
  O    +1.284582   -0.134603   -0.076015
  H    -2.094169   +0.152700   +0.030586
  H    -1.180282   -0.987265   -0.942536
  H    -1.173834   -1.114452   +0.817899
  H    -0.029998   +1.243167   -0.791456
  H    -0.025089   +1.125153   +0.969565
  H    +1.303175   -0.745523   +0.704185
  H    -3.421643   +1.054465   +0.108139
 10
 * E = -152.591162 hartree ; s = -1.0000 (bw100)
  C    -1.182823   -0.419024   -0.017195
  C    +0.024753   +0.538784   +0.043322
  O    +1.284078   -0.134587   -0.076015
  H    -2.092557   +0.158066   +0.031036
  H    -1.186009   -0.985090   -0.942772
  H    -1.179359   -1.112393   +0.818418
  H    -0.030426   +1.243345   -0.791355
  H    -0.025512   +1.125257   +0.969562
  H    +1.302814   -0.745167   +0.704452
  H    -3.379148   +1.026114   +0.105728
 10
 * E = -152.589659 hartree ; s = -0.9000 (bw90)
  C    -1.184289   -0.417636   -0.017099
  C    +0.024194   +0.538890   +0.043342
  O    +1.283654   -0.134581   -0.076017
  H    -2.091177   +0.163281   +0.031467
  H    -1.192123   -0.982842   -0.943081
  H    -1.185284   -1.110255   +0.819038
  H    -0.030806   +1.243583   -0.791271
  H    -0.025887   +1.125428   +0.969577
  H    +1.302523   -0.744834   +0.704711
  H    -3.336641   +0.997863   +0.103327
 10
 * E = -152.587931 hartree ; s = -0.8000 (bw80)
  C    -1.185781   -0.416324   -0.017007
  C    +0.023629   +0.539084   +0.043369
  O    +1.283315   -0.134592   -0.076027
  H    -2.090251   +0.168210   +0.031873
  H    -1.198592   -0.980474   -0.943487
  H    -1.191572   -1.107999   +0.819789
  H    -0.031115   +1.243876   -0.791217
  H    -0.026185   +1.125669   +0.969622
  H    +1.302312   -0.744533   +0.704963
  H    -3.294119   +0.969706   +0.100932
 10
 * E = -152.585952 hartree ; s = -0.7000 (bw70)
  C    -1.187289   -0.415083   -0.016919
  C    +0.023063   +0.539369   +0.043406
  O    +1.283062   -0.134624   -0.076037
  H    -2.090119   +0.172808   +0.032257
  H    -1.205361   -0.977946   -0.944028
  H    -1.198173   -1.105593   +0.820707
  H    -0.031337   +1.244203   -0.791206
  H    -0.026398   +1.125957   +0.969707
  H    +1.302197   -0.744279   +0.705202
  H    -3.251589   +0.941635   +0.098543
 10
 * E = -152.583691 hartree ; s = -0.6000 (bw60)
  C    -1.188764   -0.413927   -0.016841
  C    +0.022511   +0.539735   +0.043451
  O    +1.282886   -0.134676   -0.076048
  H    -2.091647   +0.177432   +0.032660
  H    -1.212346   -0.975261   -0.944791
  H    -1.205006   -1.103052   +0.821879
  H    -0.031473   +1.244539   -0.791252
  H    -0.026521   +1.126258   +0.969839
  H    +1.302182   -0.744077   +0.705423
  H    -3.209084   +0.913655   +0.096161
 10
 * E = -152.581102 hartree ; s = -0.5000 (bw50)
  C    -1.189940   -0.412989   -0.016779
  C    +0.021990   +0.540161   +0.043501
  O    +1.282781   -0.134745   -0.076060
  H    -2.097935   +0.183986   +0.033245
  H    -1.219371   -0.972541   -0.945965
  H    -1.211901   -1.100527   +0.823471
  H    -0.031538   +1.244839   -0.791354
  H    -0.026569   +1.126528   +0.970008
  H    +1.302266   -0.743934   +0.705620
  H    -3.166993   +0.886009   +0.093808
 10
 * E = -152.577985 hartree ; s = -0.4000 (bw40)
  C    -1.190124   -0.412691   -0.016770
  C    +0.021537   +0.540590   +0.043549
  O    +1.282731   -0.134823   -0.076071
  H    -2.115762   +0.196953   +0.034379
  H    -1.225810   -0.970146   -0.947622
  H    -1.218238   -1.098379   +0.825489
  H    -0.031564   +1.245055   -0.791484
  H    -0.026575   +1.126717   +0.970174
  H    +1.302422   -0.743856   +0.705787
  H    -3.128198   +0.860570   +0.091639
 10
 * E = -152.573963 hartree ; s = -0.3000 (bw30)
  C    -1.188991   -0.413260   -0.016830
  C    +0.021199   +0.540935   +0.043585
  O    +1.282710   -0.134886   -0.076081
  H    -2.145860   +0.217206   +0.036122
  H    -1.230817   -0.968356   -0.949294
  H    -1.223184   -1.096831   +0.827422
  H    -0.031576   +1.245182   -0.791592
  H    -0.026574   +1.126815   +0.970293
  H    +1.302583   -0.743832   +0.705912
  H    -3.097412   +0.840405   +0.089919
 10
 * E = -152.569432 hartree ; s = -0.2000 (bw20)
  C    -1.187080   -0.414362   -0.016930
  C    +0.020940   +0.541200   +0.043613
  O    +1.282699   -0.134937   -0.076087
  H    -2.181728   +0.240938   +0.038150
  H    -1.234680   -0.966967   -0.950710
  H    -1.227009   -1.095644   +0.829033
  H    -0.031588   +1.245259   -0.791674
  H    -0.026574   +1.126868   +0.970372
  H    +1.302724   -0.743837   +0.706011
  H    -3.073437   +0.824710   +0.088581
 10
 * E = -152.565751 hartree ; s = -0.1000 (bw10)
  C    -1.184763   -0.415746   -0.017050
  C    +0.020716   +0.541424   +0.043634
  O    +1.282689   -0.134978   -0.076088
  H    -2.219919   +0.266079   +0.040292
  H    -1.237983   -0.965743   -0.951931
  H    -1.230285   -1.094591   +0.830424
  H    -0.031604   +1.245317   -0.791740
  H    -0.026574   +1.126904   +0.970431
  H    +1.302847   -0.743855   +0.706093
  H    -3.053548   +0.811701   +0.087472
 10
 * E = -152.564335 hartree ; s =  0.0000 (saddle)
  C    -1.182110   -0.417348   -0.017187
  C    +0.020499   +0.541621   +0.043654
  O    +1.282681   -0.135019   -0.076092
  H    -2.259395   +0.292022   +0.042499
  H    -1.241108   -0.964536   -0.953070
  H    -1.233381   -1.093555   +0.831724
  H    -0.031626   +1.245366   -0.791801
  H    -0.026584   +1.126943   +0.970477
  H    +1.302949   -0.743862   +0.706129
  H    -3.036819   +0.800766   +0.086539
 10
 * E = -152.565679 hartree ; s =  0.1000 (fw10)
  C    -1.179137   -0.419175   -0.017347
  C    +0.020283   +0.541835   +0.043674
  O    +1.282680   -0.135058   -0.076097
  H    -2.299662   +0.318447   +0.044731
  H    -1.244398   -0.963266   -0.954236
  H    -1.236653   -1.092436   +0.833076
  H    -0.031641   +1.245440   -0.791857
  H    -0.026585   +1.126981   +0.970540
  H    +1.303067   -0.743894   +0.706243
  H    -3.022885   +0.791671   +0.085763
 10
 * E = -152.568887 hartree ; s =  0.2000 (fw20)
  C    -1.175459   -0.421437   -0.017543
  C    +0.020031   +0.542063   +0.043697
  O    +1.282687   -0.135098   -0.076101
  H    -2.340767   +0.345420   +0.047003
  H    -1.248233   -0.961772   -0.955600
  H    -1.240461   -1.091125   +0.834656
  H    -0.031678   +1.245521   -0.791928
  H    -0.026609   +1.127037   +0.970611
  H    +1.303169   -0.743906   +0.706323
  H    -3.015079   +0.786596   +0.085335
 10
 * E = -152.572443 hartree ; s =  0.3000 (fw30)
  C    -1.170694   -0.424390   -0.017794
  C    +0.019738   +0.542333   +0.043727
  O    +1.282719   -0.135137   -0.076111
  H    -2.380746   +0.371671   +0.049198
  H    -1.253126   -0.959911   -0.957367
  H    -1.245316   -1.089503   +0.836698
  H    -0.031780   +1.245613   -0.792025
  H    -0.026696   +1.127115   +0.970716
  H    +1.303252   -0.743898   +0.706403
  H    -3.019003   +0.789216   +0.085576
 10
 * E = -152.575757 hartree ; s =  0.4000 (fw40)
  C    -1.165162   -0.427868   -0.018090
  C    +0.019461   +0.542622   +0.043763
  O    +1.282795   -0.135158   -0.076121
  H    -2.415693   +0.394661   +0.051092
  H    -1.258814   -0.957841   -0.959433
  H    -1.250955   -1.087705   +0.839076
  H    -0.032018   +1.245686   -0.792156
  H    -0.026922   +1.127181   +0.970857
  H    +1.303292   -0.743850   +0.706482
  H    -3.036069   +0.800461   +0.086569
 10
 * E = -152.578871 hartree ; s =  0.5000 (fw50)
  C    -1.159555   -0.431479   -0.018397
  C    +0.019266   +0.542889   +0.043801
  O    +1.282926   -0.135147   -0.076131
  H    -2.446945   +0.415262   +0.052772
  H    -1.264600   -0.955818   -0.961483
  H    -1.256692   -1.085948   +0.841438
  H    -0.032412   +1.245707   -0.792306
  H    -0.027309   +1.127205   +0.971015
  H    +1.303290   -0.743760   +0.706555
  H    -3.059020   +0.815588   +0.087902
 10
 * E = -152.581774 hartree ; s =  0.6000 (fw60)
  C    -1.154073   -0.435116   -0.018701
  C    +0.019165   +0.543113   +0.043833
  O    +1.283122   -0.135098   -0.076141
  H    -2.476878   +0.435017   +0.054374
  H    -1.270264   -0.953895   -0.963394
  H    -1.262309   -1.084261   +0.843654
  H    -0.032945   +1.245665   -0.792469
  H    -0.027838   +1.127176   +0.971175
  H    +1.303262   -0.743635   +0.706622
  H    -3.083920   +0.832023   +0.089353
 10
 * E = -152.584451 hartree ; s =  0.7000 (fw70)
  C    -1.148764   -0.438766   -0.019002
  C    +0.019160   +0.543281   +0.043862
  O    +1.283398   -0.135000   -0.076151
  H    -2.506268   +0.454428   +0.055939
  H    -1.275749   -0.952079   -0.965137
  H    -1.267747   -1.082651   +0.845700
  H    -0.033595   +1.245551   -0.792638
  H    -0.028483   +1.127084   +0.971334
  H    +1.303235   -0.743477   +0.706673
  H    -3.109796   +0.849136   +0.090864
 10
 * E = -152.586896 hartree ; s =  0.8000 (fw80)
  C    -1.143655   -0.442413   -0.019302
  C    +0.019243   +0.543374   +0.043880
  O    +1.283763   -0.134847   -0.076152
  H    -2.535386   +0.473665   +0.057485
  H    -1.281020   -0.950384   -0.966714
  H    -1.272976   -1.081128   +0.847575
  H    -0.034333   +1.245362   -0.792812
  H    -0.029211   +1.126919   +0.971481
  H    +1.303235   -0.743300   +0.706699
  H    -3.136356   +0.866736   +0.092423
 10
 * E = -152.589115 hartree ; s =  0.9000 (fw90)
  C    -1.138775   -0.446050   -0.019593
  C    +0.019408   +0.543379   +0.043887
  O    +1.284240   -0.134630   -0.076151
  H    -2.564382   +0.492821   +0.059017
  H    -1.286049   -0.948823   -0.968136
  H    -1.277972   -1.079709   +0.849286
  H    -0.035134   +1.245083   -0.792987
  H    -0.029993   +1.126669   +0.971610
  H    +1.303298   -0.743112   +0.706688
  H    -3.163451   +0.884732   +0.094019
 10
 * E = -152.591117 hartree ; s =  1.0000 (fw100)
  C    -1.134153   -0.449665   -0.019878
  C    +0.019649   +0.543278   +0.043882
  O    +1.284845   -0.134341   -0.076141
  H    -2.593355   +0.511952   +0.060538
  H    -1.290816   -0.947418   -0.969412
  H    -1.282713   -1.078412   +0.850844
  H    -0.035968   +1.244709   -0.793161
  H    -0.030802   +1.126321   +0.971717
  H    +1.303468   -0.742920   +0.706628
  H    -3.190990   +0.903068   +0.095650
 10
 * E = -152.592914 hartree ; s =  1.1000 (fw110)
  C    -1.129818   -0.453245   -0.020155
  C    +0.019957   +0.543049   +0.043856
  O    +1.285595   -0.133967   -0.076119
  H    -2.622366   +0.531096   +0.062056
  H    -1.295308   -0.946189   -0.970551
  H    -1.287185   -1.077258   +0.852257
  H    -0.036814   +1.244227   -0.793332
  H    -0.031612   +1.125860   +0.971797
  H    +1.303788   -0.742737   +0.706507
  H    -3.218903   +0.921702   +0.097310
 10
 * E = -152.594521 hartree ; s =  1.2000 (fw120)
  C    -1.125794   -0.456775   -0.020423
  C    +0.020326   +0.542672   +0.043810
  O    +1.286510   -0.133502   -0.076083
  H    -2.651456   +0.550278   +0.063567
  H    -1.299515   -0.945162   -0.971561
  H    -1.291382   -1.076264   +0.853533
  H    -0.037646   +1.243618   -0.793505
  H    -0.032404   +1.125269   +0.971841
  H    +1.304303   -0.742572   +0.706312
  H    -3.247135   +0.940605   +0.098998
 10
 * E = -152.595954 hartree ; s =  1.3000 (fw130)
  C    -1.122110   -0.460239   -0.020678
  C    +0.020746   +0.542127   +0.043741
  O    +1.287611   -0.132929   -0.076030
  H    -2.680646   +0.569505   +0.065075
  H    -1.303438   -0.944355   -0.972452
  H    -1.295304   -1.075446   +0.854682
  H    -0.038447   +1.242864   -0.793679
  H    -0.033163   +1.124531   +0.971849
  H    +1.305061   -0.742435   +0.706028
  H    -3.275635   +0.959743   +0.100710
 10
 * E = -152.597229 hartree ; s =  1.4000 (fw140)
  C    -1.118788   -0.463621   -0.020921
  C    +0.021211   +0.541394   +0.043645
  O    +1.288911   -0.132240   -0.075959
  H    -2.709937   +0.588775   +0.066575
  H    -1.307090   -0.943783   -0.973227
  H    -1.298958   -1.074815   +0.855711
  H    -0.039203   +1.241949   -0.793857
  H    -0.033888   +1.123631   +0.971816
  H    +1.306107   -0.742331   +0.705644
  H    -3.304352   +0.979087   +0.102447
 10
 * E = -152.598361 hartree ; s =  1.5000 (fw150)
  C    -1.115847   -0.466906   -0.021148
  C    +0.021715   +0.540453   +0.043522
  O    +1.290426   -0.131429   -0.075869
  H    -2.739310   +0.608073   +0.068068
  H    -1.310490   -0.943457   -0.973892
  H    -1.302366   -1.074375   +0.856628
  H    -0.039910   +1.240852   -0.794037
  H    -0.034575   +1.122551   +0.971735
  H    +1.307475   -0.742266   +0.705154
  H    -3.333224   +0.998599   +0.104204
