 10
 * E = -152.598676 hartree ; s = -0.8000 (bw80)
  C    -1.332133   -0.277983   +0.066664
  C    +0.003368   +0.352410   -0.327599
  O    +1.163043   -0.359667   +0.003358
  H    -2.158382   +0.370210   -0.207619
  H    -1.452959   -1.226326   -0.453985
  H    -1.383153   -0.468506   +1.135463
  H    +0.052789   +0.688378   -1.364177
  H    +0.050446   +1.792695   +0.445496
  H    +1.067555   -0.584528   +0.963106
  H    +0.060488   +2.418681   +0.787496
 10
 * E = -152.596081 hartree ; s = -0.7000 (bw70)
  C    -1.331970   -0.277847   +0.066572
  C    +0.003602   +0.359073   -0.323985
  O    +1.162764   -0.360075   +0.003181
  H    -2.159428   +0.368834   -0.207729
  H    -1.449152   -1.225721   -0.455590
  H    -1.383863   -0.469358   +1.135122
  H    +0.050873   +0.682883   -1.364781
  H    +0.049323   +1.768498   +0.432774
  H    +1.068356   -0.583934   +0.963417
  H    +0.060050   +2.396487   +0.775307
 10
 * E = -152.593240 hartree ; s = -0.6000 (bw60)
  C    -1.331906   -0.277886   +0.066410
  C    +0.003757   +0.366019   -0.320374
  O    +1.162672   -0.360576   +0.003011
  H    -2.160269   +0.367741   -0.207766
  H    -1.446245   -1.225382   -0.456854
  H    -1.384326   -0.469913   +1.134815
  H    +0.048920   +0.676500   -1.365591
  H    +0.048210   +1.743800   +0.419788
  H    +1.068945   -0.583396   +0.963712
  H    +0.059624   +2.374966   +0.763519
 10
 * E = -152.590123 hartree ; s = -0.5000 (bw50)
  C    -1.331933   -0.278091   +0.066180
  C    +0.003822   +0.373165   -0.316799
  O    +1.162763   -0.361163   +0.002848
  H    -2.160860   +0.366958   -0.207757
  H    -1.444281   -1.225288   -0.457735
  H    -1.384515   -0.470179   +1.134533
  H    +0.046993   +0.669342   -1.366585
  H    +0.047059   +1.716264   +0.405284
  H    +1.069315   -0.582900   +0.963970
  H    +0.059240   +2.355623   +0.752946
 10
 * E = -152.586453 hartree ; s = -0.4000 (bw40)
  C    -1.332017   -0.278410   +0.065913
  C    +0.003802   +0.379757   -0.313598
  O    +1.162988   -0.361764   +0.002710
  H    -2.161171   +0.366493   -0.207736
  H    -1.443282   -1.225354   -0.458178
  H    -1.384453   -0.470206   +1.134290
  H    +0.045317   +0.662335   -1.367665
  H    +0.045799   +1.679704   +0.385865
  H    +1.069475   -0.582461   +0.964140
  H    +0.059022   +2.344659   +0.746946
 10
 * E = -152.581603 hartree ; s = -0.3000 (bw30)
  C    -1.332101   -0.278706   +0.065691
  C    +0.003733   +0.384564   -0.311307
  O    +1.163227   -0.362237   +0.002618
  H    -2.161281   +0.366267   -0.207719
  H    -1.442982   -1.225439   -0.458277
  H    -1.384299   -0.470133   +1.134115
  H    +0.044153   +0.657063   -1.368562
  H    +0.044551   +1.636685   +0.362846
  H    +1.069500   -0.582134   +0.964214
  H    +0.059041   +2.345505   +0.747368
 10
 * E = -152.576364 hartree ; s = -0.2000 (bw20)
  C    -1.332167   -0.278957   +0.065504
  C    +0.003647   +0.388150   -0.309624
  O    +1.163444   -0.362616   +0.002555
  H    -2.161327   +0.366129   -0.207708
  H    -1.442962   -1.225511   -0.458235
  H    -1.384147   -0.470047   +1.133984
  H    +0.043298   +0.653018   -1.369284
  H    +0.043382   +1.593107   +0.339459
  H    +1.069478   -0.581876   +0.964246
  H    +0.059184   +2.352294   +0.751016
 10
 * E = -152.572488 hartree ; s = -0.1000 (bw10)
  C    -1.332221   -0.279192   +0.065333
  C    +0.003545   +0.391150   -0.308237
  O    +1.163655   -0.362963   +0.002502
  H    -2.161357   +0.366016   -0.207694
  H    -1.443064   -1.225577   -0.458126
  H    -1.384006   -0.469957   +1.133873
  H    +0.042559   +0.649450   -1.369923
  H    +0.042266   +1.549970   +0.316279
  H    +1.069438   -0.581640   +0.964266
  H    +0.059383   +2.361751   +0.756109
 10
 * E = -152.571140 hartree ; s =  0.0000 (saddle)
  C    -1.332279   -0.279432   +0.065158
  C    +0.003419   +0.393802   -0.307052
  O    +1.163888   -0.363318   +0.002444
  H    -2.161392   +0.365906   -0.207674
  H    -1.443249   -1.225657   -0.457977
  H    -1.383872   -0.469863   +1.133766
  H    +0.041847   +0.645940   -1.370519
  H    +0.041197   +1.507472   +0.293394
  H    +1.069364   -0.581399   +0.964331
  H    +0.059622   +2.373042   +0.762199
 10
 * E = -152.572280 hartree ; s =  0.1000 (fw10)
  C    -1.332309   -0.279683   +0.064961
  C    +0.003258   +0.396203   -0.306005
  O    +1.164119   -0.363699   +0.002395
  H    -2.161417   +0.365786   -0.207655
  H    -1.443451   -1.225738   -0.457824
  H    -1.383718   -0.469768   +1.133645
  H    +0.041045   +0.642208   -1.371128
  H    +0.040178   +1.465665   +0.270913
  H    +1.069340   -0.581133   +0.964325
  H    +0.059897   +2.385833   +0.769071
 10
 * E = -152.574840 hartree ; s =  0.2000 (fw20)
  C    -1.332352   -0.279989   +0.064727
  C    +0.003022   +0.398161   -0.305257
  O    +1.164419   -0.364179   +0.002329
  H    -2.161461   +0.365631   -0.207627
  H    -1.443719   -1.225886   -0.457648
  H    -1.383542   -0.469648   +1.133507
  H    +0.040086   +0.637798   -1.371832
  H    +0.039269   +1.425876   +0.249391
  H    +1.069282   -0.580796   +0.964396
  H    +0.060237   +2.401667   +0.777589
 10
 * E = -152.577483 hartree ; s =  0.3000 (fw30)
  C    -1.332419   -0.280415   +0.064412
  C    +0.002646   +0.399213   -0.305099
  O    +1.164836   -0.364866   +0.002229
  H    -2.161527   +0.365401   -0.207605
  H    -1.444096   -1.226188   -0.457468
  H    -1.383303   -0.469491   +1.133318
  H    +0.038782   +0.631982   -1.372914
  H    +0.038626   +1.391820   +0.230615
  H    +1.069212   -0.580301   +0.964533
  H    +0.060696   +2.423041   +0.789092
 10
 * E = -152.579639 hartree ; s =  0.4000 (fw40)
  C    -1.332540   -0.281042   +0.064008
  C    +0.002106   +0.398671   -0.305907
  O    +1.165397   -0.365864   +0.002084
  H    -2.161588   +0.365043   -0.207645
  H    -1.444678   -1.226812   -0.457293
  H    -1.382985   -0.469329   +1.133062
  H    +0.037072   +0.624498   -1.374821
  H    +0.038484   +1.371673   +0.218373
  H    +1.069162   -0.579573   +0.964759
  H    +0.061308   +2.451438   +0.804392
 10
 * E = -152.581530 hartree ; s =  0.5000 (fw50)
  C    -1.332735   -0.281838   +0.063589
  C    +0.001562   +0.397109   -0.307311
  O    +1.165992   -0.367059   +0.001910
  H    -2.161615   +0.364579   -0.207807
  H    -1.445482   -1.227738   -0.457101
  H    -1.382671   -0.469259   +1.132795
  H    +0.035325   +0.616629   -1.377380
  H    +0.038659   +1.364012   +0.211492
  H    +1.069200   -0.578714   +0.965034
  H    +0.061975   +2.482540   +0.821175
 10
 * E = -152.583267 hartree ; s =  0.6000 (fw60)
  C    -1.332991   -0.282760   +0.063196
  C    +0.001116   +0.395385   -0.308850
  O    +1.166548   -0.368354   +0.001726
  H    -2.161630   +0.364020   -0.208082
  H    -1.446434   -1.228856   -0.456861
  H    -1.382429   -0.469311   +1.132554
  H    +0.033746   +0.608956   -1.380130
  H    +0.038861   +1.360885   +0.205847
  H    +1.069359   -0.577795   +0.965338
  H    +0.062645   +2.513967   +0.838171
 10
 * E = -152.584866 hartree ; s =  0.7000 (fw70)
  C    -1.333286   -0.283783   +0.062838
  C    +0.000771   +0.393720   -0.310425
  O    +1.167040   -0.369725   +0.001535
  H    -2.161662   +0.363342   -0.208441
  H    -1.447443   -1.230112   -0.456568
  H    -1.382281   -0.469474   +1.132347
  H    +0.032369   +0.601489   -1.382901
  H    +0.039037   +1.359399   +0.200155
  H    +1.069644   -0.576818   +0.965676
  H    +0.063312   +2.545420   +0.855233
 10
 * E = -152.586335 hartree ; s =  0.8000 (fw80)
  C    -1.333599   -0.284883   +0.062513
  C    +0.000518   +0.392139   -0.312029
  O    +1.167453   -0.371154   +0.001340
  H    -2.161733   +0.362522   -0.208861
  H    -1.448420   -1.231473   -0.456227
  H    -1.382214   -0.469724   +1.132173
  H    +0.031193   +0.594200   -1.385663
  H    +0.039209   +1.358817   +0.194281
  H    +1.070049   -0.575770   +0.966050
  H    +0.063972   +2.576857   +0.872347
 10
 * E = -152.587680 hartree ; s =  0.9000 (fw90)
  C    -1.333909   -0.286037   +0.062220
  C    +0.000345   +0.390629   -0.313668
  O    +1.167780   -0.372633   +0.001140
  H    -2.161858   +0.361543   -0.209330
  H    -1.449297   -1.232920   -0.455839
  H    -1.382200   -0.470037   +1.132030
  H    +0.030201   +0.587076   -1.388415
  H    +0.039406   +1.358830   +0.188281
  H    +1.070564   -0.574625   +0.966460
  H    +0.064626   +2.608261   +0.889512
 10
 * E = -152.588909 hartree ; s =  1.0000 (fw100)
  C    -1.334196   -0.287227   +0.061952
  C    +0.000234   +0.389173   -0.315347
  O    +1.168014   -0.374154   +0.000940
  H    -2.162041   +0.360396   -0.209841
  H    -1.450019   -1.234441   -0.455395
  H    -1.382200   -0.470381   +1.131917
  H    +0.029377   +0.580124   -1.391158
  H    +0.039648   +1.359236   +0.182231
  H    +1.071169   -0.573357   +0.966909
  H    +0.065272   +2.639630   +0.906731
 10
 * E = -152.590030 hartree ; s =  1.1000 (fw110)
  C    -1.334442   -0.288439   +0.061705
  C    +0.000174   +0.387754   -0.317069
  O    +1.168149   -0.375714   +0.000740
  H    -2.162281   +0.359079   -0.210394
  H    -1.450553   -1.236030   -0.454890
  H    -1.382178   -0.470728   +1.131826
  H    +0.028700   +0.573353   -1.393888
  H    +0.039942   +1.359888   +0.176195
  H    +1.071847   -0.571938   +0.967403
  H    +0.065912   +2.670960   +0.924011
 10
 * E = -152.591050 hartree ; s =  1.2000 (fw120)
  C    -1.334635   -0.289661   +0.061471
  C    +0.000149   +0.386363   -0.318835
  O    +1.168184   -0.377311   +0.000540
  H    -2.162568   +0.357593   -0.210994
  H    -1.450876   -1.237687   -0.454305
  H    -1.382094   -0.471043   +1.131759
  H    +0.028149   +0.566786   -1.396603
  H    +0.040288   +1.360670   +0.170229
  H    +1.072576   -0.570337   +0.967941
  H    +0.066545   +2.702251   +0.941352
 10
 * E = -152.591975 hartree ; s =  1.3000 (fw130)
  C    -1.334764   -0.290891   +0.061249
  C    +0.000153   +0.384989   -0.320643
  O    +1.168122   -0.378946   +0.000339
  H    -2.162894   +0.355940   -0.211648
  H    -1.450977   -1.239418   -0.453625
  H    -1.381920   -0.471295   +1.131716
  H    +0.027704   +0.560448   -1.399294
  H    +0.040683   +1.361500   +0.164385
  H    +1.073339   -0.568525   +0.968524
  H    +0.067167   +2.733501   +0.958752
 10
 * E = -152.592813 hartree ; s =  1.4000 (fw140)
  C    -1.334819   -0.292121   +0.061029
  C    +0.000177   +0.383627   -0.322489
  O    +1.167958   -0.380619   +0.000135
  H    -2.163246   +0.354128   -0.212363
  H    -1.450860   -1.241227   -0.452830
  H    -1.381636   -0.471450   +1.131692
  H    +0.027352   +0.554357   -1.401959
  H    +0.041118   +1.362315   +0.158700
  H    +1.074126   -0.566478   +0.969152
  H    +0.067780   +2.764705   +0.976209
 10
 * E = -152.593570 hartree ; s =  1.5000 (fw150)
  C    -1.334793   -0.293351   +0.060809
  C    +0.000215   +0.382275   -0.324372
  O    +1.167701   -0.382334   -0.000075
  H    -2.163610   +0.352161   -0.213153
  H    -1.450525   -1.243122   -0.451905
  H    -1.381228   -0.471482   +1.131689
  H    +0.027076   +0.548534   -1.404593
  H    +0.041583   +1.363073   +0.153201
  H    +1.074933   -0.564172   +0.969822
  H    +0.068383   +2.795859   +0.993724
 10
 * E = -152.594253 hartree ; s =  1.6000 (fw160)
  C    -1.334688   -0.294576   +0.060587
  C    +0.000264   +0.380931   -0.326282
  O    +1.167346   -0.384090   -0.000291
  H    -2.163980   +0.350049   -0.214030
  H    -1.449977   -1.245107   -0.450833
  H    -1.380699   -0.471363   +1.131709
  H    +0.026865   +0.542992   -1.407190
  H    +0.042068   +1.363746   +0.147910
  H    +1.075758   -0.561594   +0.970534
  H    +0.068977   +2.826958   +1.011287
 10
 * E = -152.594868 hartree ; s =  1.7000 (fw170)
  C    -1.334506   -0.295801   +0.060359
  C    +0.000322   +0.379599   -0.328216
  O    +1.166900   -0.385889   -0.000517
  H    -2.164345   +0.347795   -0.215015
  H    -1.449227   -1.247190   -0.449602
  H    -1.380064   -0.471070   +1.131748
  H    +0.026712   +0.537733   -1.409749
  H    +0.042569   +1.364318   +0.142837
  H    +1.076608   -0.558732   +0.971281
  H    +0.069561   +2.857999   +1.028893
 10
 * E = -152.595421 hartree ; s =  1.8000 (fw180)
  C    -1.334254   -0.297024   +0.060123
  C    +0.000384   +0.378276   -0.330166
  O    +1.166371   -0.387734   -0.000753
  H    -2.164705   +0.345403   -0.216128
  H    -1.448285   -1.249376   -0.448203
  H    -1.379342   -0.470589   +1.131809
  H    +0.026611   +0.532752   -1.412264
  H    +0.043082   +1.364783   +0.137982
  H    +1.077502   -0.555585   +0.972059
  H    +0.070134   +2.888977   +1.046537
 10
 * E = -152.595916 hartree ; s =  1.9000 (fw190)
  C    -1.333940   -0.298244   +0.059875
  C    +0.000453   +0.376964   -0.332124
  O    +1.165767   -0.389622   -0.001001
  H    -2.165060   +0.342872   -0.217393
  H    -1.447155   -1.251669   -0.446631
  H    -1.378569   -0.469903   +1.131885
  H    +0.026551   +0.528037   -1.414734
  H    +0.043604   +1.365136   +0.133340
  H    +1.078455   -0.552161   +0.972860
  H    +0.070696   +2.919887   +1.064212
 10
 * E = -152.596361 hartree ; s =  2.0000 (fw200)
  C    -1.333575   -0.299463   +0.059616
  C    +0.000523   +0.375663   -0.334076
  O    +1.165098   -0.391552   -0.001266
  H    -2.165407   +0.340208   -0.218834
  H    -1.445845   -1.254068   -0.444882
  H    -1.377782   -0.469007   +1.131978
  H    +0.026525   +0.523563   -1.417153
  H    +0.044135   +1.365384   +0.128901
  H    +1.079491   -0.548467   +0.973676
  H    +0.071250   +2.950728   +1.081912
