 10
 * E = -152.595653 hartree ; s = -1.6000 (bw160)
  C    -1.008909   -0.489533   -0.023970
  C    +0.117464   +0.528861   +0.041665
  O    +1.386023   -0.142134   -0.077783
  H    -2.562771   +0.538894   +0.061932
  H    -1.187570   -0.971780   -0.976606
  H    -1.179689   -1.103100   +0.852378
  H    +0.053717   +1.229270   -0.795818
  H    +0.059032   +1.111054   +0.969790
  H    +1.402948   -0.752954   +0.703194
  H    -3.158735   +0.932975   +0.097571
 10
 * E = -152.594470 hartree ; s = -1.5000 (bw150)
  C    -1.012427   -0.485847   -0.023699
  C    +0.116741   +0.529756   +0.041771
  O    +1.384229   -0.143028   -0.077874
  H    -2.539055   +0.523468   +0.060682
  H    -1.185563   -0.971280   -0.975781
  H    -1.177676   -1.102603   +0.851520
  H    +0.054358   +1.230293   -0.795672
  H    +0.059638   +1.112054   +0.969866
  H    +1.401240   -0.753135   +0.703655
  H    -3.135989   +0.917561   +0.096185
 10
 * E = -152.593170 hartree ; s = -1.4000 (bw140)
  C    -1.016288   -0.482053   -0.023417
  C    +0.116054   +0.530466   +0.041854
  O    +1.382639   -0.143799   -0.077946
  H    -2.515391   +0.508067   +0.059432
  H    -1.183476   -0.970931   -0.974846
  H    -1.175580   -1.102221   +0.850551
  H    +0.055020   +1.231148   -0.795528
  H    +0.060258   +1.112885   +0.969903
  H    +1.399838   -0.753330   +0.704032
  H    -3.113434   +0.902324   +0.094817
 10
 * E = -152.591743 hartree ; s = -1.3000 (bw130)
  C    -1.020479   -0.478167   -0.023125
  C    +0.115405   +0.531004   +0.041916
  O    +1.381249   -0.144457   -0.078001
  H    -2.491790   +0.492700   +0.058182
  H    -1.181295   -0.970726   -0.973803
  H    -1.173392   -1.101953   +0.849466
  H    +0.055690   +1.231851   -0.795384
  H    +0.060889   +1.113562   +0.969904
  H    +1.398719   -0.753536   +0.704325
  H    -3.091125   +0.887297   +0.093470
 10
 * E = -152.590180 hartree ; s = -1.2000 (bw120)
  C    -1.024983   -0.474201   -0.022822
  C    +0.114799   +0.531387   +0.041958
  O    +1.380047   -0.145012   -0.078043
  H    -2.468254   +0.477368   +0.056932
  H    -1.179017   -0.970659   -0.972648
  H    -1.171110   -1.101791   +0.848265
  H    +0.056361   +1.232420   -0.795239
  H    +0.061522   +1.114102   +0.969870
  H    +1.397851   -0.753756   +0.704542
  H    -3.069117   +0.872518   +0.092149
 10
 * E = -152.588472 hartree ; s = -1.1000 (bw110)
  C    -1.029780   -0.470175   -0.022510
  C    +0.114245   +0.531633   +0.041983
  O    +1.379020   -0.145472   -0.078070
  H    -2.444771   +0.462063   +0.055682
  H    -1.176642   -0.970718   -0.971381
  H    -1.168735   -1.101732   +0.846951
  H    +0.057021   +1.232869   -0.795089
  H    +0.062151   +1.114522   +0.969806
  H    +1.397201   -0.753985   +0.704692
  H    -3.047472   +0.858021   +0.090854
 10
 * E = -152.586612 hartree ; s = -1.0000 (bw100)
  C    -1.034851   -0.466101   -0.022189
  C    +0.113751   +0.531758   +0.041991
  O    +1.378156   -0.145845   -0.078086
  H    -2.421325   +0.446772   +0.054428
  H    -1.174167   -0.970891   -0.970006
  H    -1.166266   -1.101761   +0.845522
  H    +0.057657   +1.233214   -0.794939
  H    +0.062765   +1.114838   +0.969712
  H    +1.396733   -0.754217   +0.704783
  H    -3.026263   +0.843849   +0.089590
 10
 * E = -152.584597 hartree ; s = -0.9000 (bw90)
  C    -1.040174   -0.461997   -0.021861
  C    +0.113325   +0.531781   +0.041987
  O    +1.377440   -0.146144   -0.078091
  H    -2.397874   +0.431469   +0.053169
  H    -1.171598   -0.971166   -0.968526
  H    -1.163707   -1.101869   +0.843986
  H    +0.058263   +1.233471   -0.794787
  H    +0.063349   +1.115067   +0.969599
  H    +1.396414   -0.754449   +0.704826
  H    -3.005573   +0.830063   +0.088363
 10
 * E = -152.582425 hartree ; s = -0.8000 (bw80)
  C    -1.045729   -0.457878   -0.021530
  C    +0.112975   +0.531718   +0.041971
  O    +1.376855   -0.146378   -0.078092
  H    -2.374363   +0.416120   +0.051903
  H    -1.168942   -0.971530   -0.966946
  H    -1.161067   -1.102048   +0.842344
  H    +0.058822   +1.233652   -0.794633
  H    +0.063899   +1.115225   +0.969468
  H    +1.396208   -0.754674   +0.704825
  H    -2.985530   +0.816738   +0.087179
 10
 * E = -152.580100 hartree ; s = -0.7000 (bw70)
  C    -1.051494   -0.453755   -0.021192
  C    +0.112712   +0.531587   +0.041948
  O    +1.376387   -0.146552   -0.078092
  H    -2.350712   +0.400671   +0.050629
  H    -1.166207   -0.971970   -0.965279
  H    -1.158353   -1.102286   +0.840615
  H    +0.059327   +1.233769   -0.794483
  H    +0.064399   +1.115321   +0.969328
  H    +1.396084   -0.754882   +0.704794
  H    -2.966321   +0.803996   +0.086046
 10
 * E = -152.577633 hartree ; s = -0.6000 (bw60)
  C    -1.057443   -0.449643   -0.020852
  C    +0.112541   +0.531400   +0.041918
  O    +1.376022   -0.146675   -0.078082
  H    -2.326784   +0.385030   +0.049338
  H    -1.163409   -0.972480   -0.963548
  H    -1.155577   -1.102581   +0.838817
  H    +0.059770   +1.233834   -0.794333
  H    +0.064837   +1.115369   +0.969183
  H    +1.396009   -0.755071   +0.704739
  H    -2.948275   +0.792046   +0.084985
 10
 * E = -152.575047 hartree ; s = -0.5000 (bw50)
  C    -1.063536   -0.445562   -0.020512
  C    +0.112466   +0.531172   +0.041884
  O    +1.375747   -0.146752   -0.078072
  H    -2.302326   +0.369036   +0.048012
  H    -1.160569   -0.973057   -0.961790
  H    -1.152759   -1.102938   +0.836987
  H    +0.060140   +1.233855   -0.794192
  H    +0.065205   +1.115378   +0.969039
  H    +1.395962   -0.755234   +0.704669
  H    -2.932092   +0.781345   +0.084033
 10
 * E = -152.572378 hartree ; s = -0.4000 (bw40)
  C    -1.069679   -0.441559   -0.020177
  C    +0.112491   +0.530916   +0.041848
  O    +1.375550   -0.146790   -0.078062
  H    -2.276849   +0.352366   +0.046625
  H    -1.157729   -0.973698   -0.960065
  H    -1.149943   -1.103361   +0.835184
  H    +0.060433   +1.233842   -0.794063
  H    +0.065497   +1.115360   +0.968905
  H    +1.395915   -0.755363   +0.704589
  H    -2.919454   +0.772991   +0.083288
 10
 * E = -152.569682 hartree ; s = -0.3000 (bw30)
  C    -1.075621   -0.437766   -0.019856
  C    +0.112603   +0.530646   +0.041813
  O    +1.375420   -0.146799   -0.078052
  H    -2.249860   +0.334701   +0.045152
  H    -1.155006   -0.974385   -0.958475
  H    -1.147242   -1.103846   +0.833510
  H    +0.060647   +1.233803   -0.793950
  H    +0.065706   +1.115326   +0.968789
  H    +1.395852   -0.755458   +0.704504
  H    -2.913539   +0.769061   +0.082928
 10
 * E = -152.567113 hartree ; s = -0.2000 (bw20)
  C    -1.080962   -0.434405   -0.019571
  C    +0.112763   +0.530387   +0.041783
  O    +1.375342   -0.146784   -0.078042
  H    -2.221852   +0.316361   +0.043609
  H    -1.152561   -0.975064   -0.957120
  H    -1.144815   -1.104349   +0.832071
  H    +0.060792   +1.233754   -0.793861
  H    +0.065844   +1.115286   +0.968695
  H    +1.395766   -0.755515   +0.704418
  H    -2.916811   +0.771162   +0.083094
 10
 * E = -152.565116 hartree ; s = -0.1000 (bw10)
  C    -1.085552   -0.431537   -0.019327
  C    +0.112933   +0.530145   +0.041753
  O    +1.375299   -0.146760   -0.078032
  H    -2.193984   +0.298108   +0.042070
  H    -1.150433   -0.975687   -0.955992
  H    -1.142701   -1.104827   +0.830865
  H    +0.060891   +1.233705   -0.793789
  H    +0.065936   +1.115254   +0.968619
  H    +1.395664   -0.755555   +0.704330
  H    -2.927915   +0.778400   +0.083704
 10
 * E = -152.564335 hartree ; s =  0.0000 (saddle)
  C    -1.089520   -0.429061   -0.019116
  C    +0.113089   +0.529908   +0.041725
  O    +1.375270   -0.146732   -0.078021
  H    -2.166805   +0.280309   +0.040570
  H    -1.148518   -0.976249   -0.954999
  H    -1.140791   -1.105269   +0.829795
  H    +0.060964   +1.233653   -0.793730
  H    +0.066006   +1.115230   +0.968548
  H    +1.395539   -0.755575   +0.704201
  H    -2.944229   +0.789053   +0.084610
 10
 * E = -152.565181 hartree ; s =  0.1000 (fw10)
  C    -1.093146   -0.426831   -0.018928
  C    +0.113255   +0.529697   +0.041703
  O    +1.375250   -0.146704   -0.078019
  H    -2.140193   +0.262857   +0.039086
  H    -1.146731   -0.976786   -0.954052
  H    -1.139023   -1.105669   +0.828793
  H    +0.061040   +1.233626   -0.793667
  H    +0.066081   +1.115204   +0.968497
  H    +1.395443   -0.755599   +0.704162
  H    -2.963192   +0.801450   +0.085666
 10
 * E = -152.567581 hartree ; s =  0.2000 (fw20)
  C    -1.096421   -0.424822   -0.018755
  C    +0.113408   +0.529473   +0.041678
  O    +1.375230   -0.146674   -0.078018
  H    -2.114304   +0.245881   +0.037644
  H    -1.144952   -0.977292   -0.953095
  H    -1.137262   -1.106045   +0.827778
  H    +0.061110   +1.233593   -0.793602
  H    +0.066151   +1.115182   +0.968440
  H    +1.395330   -0.755615   +0.704074
  H    -2.984734   +0.815536   +0.086868
 10
 * E = -152.571054 hartree ; s =  0.3000 (fw30)
  C    -1.099388   -0.423014   -0.018599
  C    +0.113558   +0.529236   +0.041650
  O    +1.375210   -0.146644   -0.078008
  H    -2.089229   +0.229425   +0.036245
  H    -1.143103   -0.977793   -0.952080
  H    -1.135427   -1.106405   +0.826706
  H    +0.061188   +1.233553   -0.793532
  H    +0.066226   +1.115155   +0.968373
  H    +1.395211   -0.755648   +0.703984
  H    -3.008555   +0.831120   +0.088197
 10
 * E = -152.574939 hartree ; s =  0.4000 (fw40)
  C    -1.101974   -0.421457   -0.018464
  C    +0.113713   +0.528977   +0.041620
  O    +1.375185   -0.146614   -0.077998
  H    -2.065371   +0.213744   +0.034908
  H    -1.141081   -0.978315   -0.950961
  H    -1.133426   -1.106776   +0.825526
  H    +0.061271   +1.233504   -0.793450
  H    +0.066311   +1.115120   +0.968294
  H    +1.395085   -0.755702   +0.703884
  H    -3.035142   +0.848521   +0.089683
 10
 * E = -152.578635 hartree ; s =  0.5000 (fw50)
  C    -1.103994   -0.420265   -0.018357
  C    +0.113878   +0.528684   +0.041585
  O    +1.375153   -0.146584   -0.077988
  H    -2.043642   +0.199410   +0.033682
  H    -1.138752   -0.978914   -0.949714
  H    -1.131124   -1.107206   +0.824205
  H    +0.061366   +1.233436   -0.793354
  H    +0.066406   +1.115062   +0.968192
  H    +1.394955   -0.755786   +0.703765
  H    -3.065511   +0.868405   +0.091376
 10
 * E = -152.581791 hartree ; s =  0.6000 (fw60)
  C    -1.105133   -0.419628   -0.018295
  C    +0.114070   +0.528347   +0.041544
  O    +1.375115   -0.146558   -0.077978
  H    -2.025765   +0.187491   +0.032652
  H    -1.135953   -0.979689   -0.948385
  H    -1.128363   -1.107801   +0.822775
  H    +0.061481   +1.233331   -0.793239
  H    +0.066514   +1.114968   +0.968060
  H    +1.394825   -0.755915   +0.703617
  H    -3.100775   +0.891504   +0.093344
 10
 * E = -152.584380 hartree ; s =  0.7000 (fw70)
  C    -1.105156   -0.419675   -0.018288
  C    +0.114306   +0.527980   +0.041497
  O    +1.375087   -0.146543   -0.077967
  H    -2.013678   +0.179143   +0.031923
  H    -1.132606   -0.980766   -0.947160
  H    -1.125069   -1.108703   +0.821395
  H    +0.061605   +1.233172   -0.793116
  H    +0.066627   +1.114817   +0.967903
  H    +1.394711   -0.756100   +0.703436
  H    -3.140641   +0.917629   +0.095569
 10
 * E = -152.586562 hartree ; s =  0.8000 (fw80)
  C    -1.104281   -0.420259   -0.018323
  C    +0.114600   +0.527620   +0.041452
  O    +1.375093   -0.146542   -0.077955
  H    -2.007261   +0.174141   +0.031477
  H    -1.128814   -0.982171   -0.946241
  H    -1.121340   -1.109968   +0.820266
  H    +0.061734   +1.232956   -0.793009
  H    +0.066738   +1.114606   +0.967745
  H    +1.394631   -0.756341   +0.703228
  H    -3.182874   +0.945323   +0.097927
 10
 * E = -152.588449 hartree ; s =  0.9000 (fw90)
  C    -1.103003   -0.421094   -0.018379
  C    +0.114958   +0.527300   +0.041412
  O    +1.375154   -0.146567   -0.077945
  H    -2.004409   +0.170990   +0.031194
  H    -1.124714   -0.983808   -0.945633
  H    -1.117313   -1.111502   +0.819409
  H    +0.061866   +1.232697   -0.792938
  H    +0.066850   +1.114355   +0.967612
  H    +1.394600   -0.756628   +0.703004
  H    -3.225715   +0.973439   +0.100321
 10
 * E = -152.590093 hartree ; s =  1.0000 (fw100)
  C    -1.101651   -0.422009   -0.018443
  C    +0.115372   +0.527038   +0.041380
  O    +1.375287   -0.146619   -0.077937
  H    -2.003345   +0.168441   +0.030973
  H    -1.120399   -0.985552   -0.945218
  H    -1.113081   -1.113162   +0.818733
  H    +0.062021   +1.232417   -0.792912
  H    +0.066980   +1.114088   +0.967517
  H    +1.394620   -0.756961   +0.702771
  H    -3.268621   +1.001632   +0.102721
 10
 * E = -152.591523 hartree ; s =  1.1000 (fw110)
  C    -1.100356   -0.422945   -0.018510
  C    +0.115825   +0.526839   +0.041358
  O    +1.375498   -0.146702   -0.077937
  H    -2.003209   +0.165887   +0.030760
  H    -1.115947   -0.987310   -0.944899
  H    -1.108723   -1.114843   +0.818152
  H    +0.062222   +1.232138   -0.792931
  H    +0.067151   +1.113834   +0.967465
  H    +1.394698   -0.757335   +0.702526
  H    -3.311495   +1.029849   +0.105121
 10
 * E = -152.592762 hartree ; s =  1.2000 (fw120)
  C    -1.099138   -0.423889   -0.018579
  C    +0.116302   +0.526709   +0.041347
  O    +1.375790   -0.146813   -0.077940
  H    -2.003648   +0.163091   +0.030533
  H    -1.111437   -0.989028   -0.944630
  H    -1.104321   -1.116487   +0.817629
  H    +0.062485   +1.231883   -0.792985
  H    +0.067385   +1.113611   +0.967452
  H    +1.394833   -0.757749   +0.702279
  H    -3.354325   +1.058087   +0.107521
 10
 * E = -152.593834 hartree ; s =  1.3000 (fw130)
  C    -1.097988   -0.424846   -0.018648
  C    +0.116790   +0.526645   +0.041341
  O    +1.376154   -0.146950   -0.077950
  H    -2.004493   +0.159982   +0.030282
  H    -1.106946   -0.990689   -0.944396
  H    -1.099949   -1.118073   +0.817153
  H    +0.062822   +1.231672   -0.793065
  H    +0.067697   +1.113435   +0.967469
  H    +1.395018   -0.758191   +0.702029
  H    -3.397110   +1.086352   +0.109923
 10
 * E = -152.594755 hartree ; s =  1.4000 (fw140)
  C    -1.096882   -0.425826   -0.018718
  C    +0.117280   +0.526639   +0.041342
  O    +1.376582   -0.147106   -0.077966
  H    -2.005618   +0.156569   +0.030007
  H    -1.102542   -0.992291   -0.944195
  H    -1.095677   -1.119600   +0.816724
  H    +0.063237   +1.231514   -0.793154
  H    +0.068092   +1.113317   +0.967505
  H    +1.395246   -0.758652   +0.701783
  H    -3.439851   +1.114657   +0.112330
 10
 * E = -152.595547 hartree ; s =  1.5000 (fw150)
  C    -1.095796   -0.426839   -0.018789
  C    +0.117770   +0.526680   +0.041352
  O    +1.377060   -0.147273   -0.077986
  H    -2.006899   +0.152912   +0.029708
  H    -1.098277   -0.993847   -0.944025
  H    -1.091554   -1.121079   +0.816344
  H    +0.063715   +1.231414   -0.793238
  H    +0.068561   +1.113257   +0.967552
  H    +1.395507   -0.759116   +0.701541
  H    -3.482560   +1.143012   +0.114740
