 10
 * E = -152.596367 hartree ; s = -1.5000 (bw150)
  C    -1.074323   -0.473424   -0.037843
  C    +0.058197   +0.538622   +0.027131
  O    +1.327147   -0.132167   -0.091941
  H    -2.643671   +0.568436   +0.048060
  H    -1.268723   -0.949689   -0.990569
  H    -1.260730   -1.080426   +0.840054
  H    -0.005138   +1.238738   -0.810507
  H    +0.000201   +1.120417   +0.955418
  H    +1.342325   -0.743886   +0.688488
  H    -3.236731   +0.955983   +0.084201
 10
 * E = -152.595236 hartree ; s = -1.4000 (bw140)
  C    -1.077693   -0.469669   -0.037571
  C    +0.057605   +0.539634   +0.027286
  O    +1.325495   -0.133005   -0.092089
  H    -2.620064   +0.552897   +0.046944
  H    -1.266693   -0.949071   -0.989897
  H    -1.258678   -1.079963   +0.839276
  H    -0.004420   +1.239934   -0.810285
  H    +0.000902   +1.121593   +0.955528
  H    +1.341140   -0.743917   +0.688960
  H    -3.213366   +0.940315   +0.082796
 10
 * E = -152.593988 hartree ; s = -1.3000 (bw130)
  C    -1.081435   -0.465814   -0.037287
  C    +0.057041   +0.540459   +0.027410
  O    +1.324040   -0.133733   -0.092205
  H    -2.596536   +0.537358   +0.045817
  H    -1.264358   -0.948738   -0.989124
  H    -1.256319   -1.079729   +0.838384
  H    -0.003648   +1.240964   -0.810078
  H    +0.001637   +1.122612   +0.955587
  H    +1.340241   -0.743992   +0.689345
  H    -3.190133   +0.924775   +0.081405
 10
 * E = -152.592612 hartree ; s = -1.2000 (bw120)
  C    -1.085544   -0.461874   -0.036992
  C    +0.056511   +0.541106   +0.027503
  O    +1.322780   -0.134358   -0.092293
  H    -2.573097   +0.521828   +0.044678
  H    -1.261668   -0.948703   -0.988243
  H    -1.253610   -1.079738   +0.837371
  H    -0.002823   +1.241839   -0.809882
  H    +0.002417   +1.123477   +0.955599
  H    +1.339591   -0.744104   +0.689645
  H    -3.167076   +0.909391   +0.080033
 10
 * E = -152.591097 hartree ; s = -1.1000 (bw110)
  C    -1.090012   -0.457860   -0.036687
  C    +0.056025   +0.541586   +0.027569
  O    +1.321707   -0.134883   -0.092355
  H    -2.549745   +0.506317   +0.043529
  H    -1.258582   -0.948958   -0.987248
  H    -1.250509   -1.079993   +0.836222
  H    -0.001951   +1.242574   -0.809691
  H    +0.003243   +1.124201   +0.955570
  H    +1.339149   -0.744244   +0.689870
  H    -3.144241   +0.894190   +0.078680
 10
 * E = -152.589430 hartree ; s = -1.0000 (bw100)
  C    -1.094825   -0.453784   -0.036373
  C    +0.055595   +0.541914   +0.027609
  O    +1.320811   -0.135314   -0.092397
  H    -2.526472   +0.490826   +0.042370
  H    -1.255058   -0.949511   -0.986125
  H    -1.246983   -1.080498   +0.834922
  H    -0.001041   +1.243183   -0.809502
  H    +0.004115   +1.124789   +0.955501
  H    +1.338878   -0.744401   +0.690030
  H    -3.121676   +0.879201   +0.077347
 10
 * E = -152.587599 hartree ; s = -0.9000 (bw90)
  C    -1.099970   -0.449658   -0.036049
  C    +0.055232   +0.542104   +0.027626
  O    +1.320079   -0.135659   -0.092420
  H    -2.503247   +0.475344   +0.041201
  H    -1.251069   -0.950351   -0.984860
  H    -1.243001   -1.081251   +0.833455
  H    -0.000114   +1.243674   -0.809315
  H    +0.005016   +1.125255   +0.955400
  H    +1.338732   -0.744562   +0.690135
  H    -3.099426   +0.864454   +0.076039
 10
 * E = -152.585594 hartree ; s = -0.8000 (bw80)
  C    -1.105430   -0.445499   -0.035716
  C    +0.054949   +0.542172   +0.027622
  O    +1.319497   -0.135924   -0.092428
  H    -2.480021   +0.459849   +0.040021
  H    -1.246586   -0.951473   -0.983433
  H    -1.238541   -1.082248   +0.831803
  H    +0.000805   +1.244056   -0.809127
  H    +0.005922   +1.125608   +0.955270
  H    +1.338676   -0.744720   +0.690195
  H    -3.077545   +0.849981   +0.074758
 10
 * E = -152.583405 hartree ; s = -0.7000 (bw70)
  C    -1.111188   -0.441317   -0.035376
  C    +0.054766   +0.542130   +0.027606
  O    +1.319048   -0.136116   -0.092426
  H    -2.456713   +0.444303   +0.038827
  H    -1.241594   -0.952876   -0.981821
  H    -1.233578   -1.083486   +0.829938
  H    +0.001680   +1.244335   -0.808937
  H    +0.006795   +1.125856   +0.955121
  H    +1.338675   -0.744862   +0.690217
  H    -3.056101   +0.835822   +0.073507
 10
 * E = -152.581026 hartree ; s = -0.6000 (bw60)
  C    -1.117223   -0.437123   -0.035027
  C    +0.054700   +0.541994   +0.027579
  O    +1.318716   -0.136243   -0.092416
  H    -2.433180   +0.428626   +0.037613
  H    -1.236080   -0.954561   -0.979997
  H    -1.228105   -1.084962   +0.827833
  H    +0.002469   +1.244512   -0.808753
  H    +0.007588   +1.126007   +0.954954
  H    +1.338697   -0.744977   +0.690209
  H    -3.035195   +0.822043   +0.072291
 10
 * E = -152.578453 hartree ; s = -0.5000 (bw50)
  C    -1.123511   -0.432929   -0.034677
  C    +0.054770   +0.541774   +0.027542
  O    +1.318485   -0.136312   -0.092406
  H    -2.408961   +0.412531   +0.036355
  H    -1.230039   -0.956536   -0.977935
  H    -1.222116   -1.086687   +0.825452
  H    +0.003120   +1.244587   -0.808574
  H    +0.008241   +1.126065   +0.954780
  H    +1.338717   -0.745059   +0.690178
  H    -3.015118   +0.808826   +0.071128
 10
 * E = -152.575677 hartree ; s = -0.4000 (bw40)
  C    -1.129952   -0.428785   -0.034327
  C    +0.054984   +0.541485   +0.027502
  O    +1.318340   -0.136328   -0.092394
  H    -2.381902   +0.394631   +0.034933
  H    -1.223567   -0.958795   -0.975661
  H    -1.215701   -1.088656   +0.822827
  H    +0.003580   +1.244563   -0.808407
  H    +0.008694   +1.126035   +0.954603
  H    +1.338716   -0.745100   +0.690128
  H    -2.997307   +0.797113   +0.070097
 10
 * E = -152.572544 hartree ; s = -0.3000 (bw30)
  C    -1.135894   -0.425063   -0.034011
  C    +0.055301   +0.541170   +0.027465
  O    +1.318266   -0.136304   -0.092382
  H    -2.346972   +0.371652   +0.033048
  H    -1.217387   -0.961091   -0.973467
  H    -1.209575   -1.090662   +0.820286
  H    +0.003816   +1.244470   -0.808272
  H    +0.008912   +1.125951   +0.954456
  H    +1.338685   -0.745101   +0.690068
  H    -2.987038   +0.790351   +0.069499
 10
 * E = -152.568860 hartree ; s = -0.2000 (bw20)
  C    -1.140356   -0.422307   -0.033774
  C    +0.055596   +0.540905   +0.027437
  O    +1.318242   -0.136264   -0.092372
  H    -2.306289   +0.344952   +0.030812
  H    -1.212630   -0.962936   -0.971795
  H    -1.204855   -1.092281   +0.818342
  H    +0.003897   +1.244369   -0.808182
  H    +0.008972   +1.125872   +0.954356
  H    +1.338636   -0.745086   +0.690010
  H    -2.987139   +0.790392   +0.069495
 10
 * E = -152.565623 hartree ; s = -0.1000 (bw10)
  C    -1.143737   -0.420233   -0.033596
  C    +0.055842   +0.540678   +0.027416
  O    +1.318240   -0.136224   -0.092362
  H    -2.264879   +0.317788   +0.028519
  H    -1.208898   -0.964405   -0.970497
  H    -1.201149   -1.093573   +0.816827
  H    +0.003926   +1.244281   -0.808116
  H    +0.008984   +1.125815   +0.954285
  H    +1.338578   -0.745066   +0.689956
  H    -2.992833   +0.794099   +0.069810
 10
 * E = -152.564335 hartree ; s =  0.0000 (saddle)
  C    -1.146548   -0.418515   -0.033445
  C    +0.056061   +0.540454   +0.027396
  O    +1.318243   -0.136186   -0.092349
  H    -2.223833   +0.290855   +0.026241
  H    -1.205546   -0.965703   -0.969328
  H    -1.197819   -1.094723   +0.815467
  H    +0.003936   +1.244199   -0.808059
  H    +0.008978   +1.125776   +0.954219
  H    +1.338511   -0.745029   +0.689872
  H    -3.001257   +0.799599   +0.070281
 10
 * E = -152.565624 hartree ; s =  0.1000 (fw10)
  C    -1.149083   -0.416995   -0.033312
  C    +0.056289   +0.540245   +0.027376
  O    +1.318252   -0.136145   -0.092347
  H    -2.183224   +0.264164   +0.023966
  H    -1.202271   -0.966973   -0.968154
  H    -1.194575   -1.095817   +0.814123
  H    +0.003954   +1.244144   -0.807995
  H    +0.008984   +1.125732   +0.954169
  H    +1.338452   -0.745020   +0.689850
  H    -3.011124   +0.806048   +0.070833
 10
 * E = -152.568887 hartree ; s =  0.2000 (fw20)
  C    -1.151267   -0.415706   -0.033200
  C    +0.056531   +0.539999   +0.027353
  O    +1.318266   -0.136101   -0.092341
  H    -2.143551   +0.238032   +0.021739
  H    -1.198688   -0.968312   -0.966869
  H    -1.191023   -1.096973   +0.812651
  H    +0.003965   +1.244075   -0.807923
  H    +0.008982   +1.125688   +0.954103
  H    +1.338378   -0.744998   +0.689790
  H    -3.023019   +0.813828   +0.071495
 10
 * E = -152.572748 hartree ; s =  0.3000 (fw30)
  C    -1.152930   -0.414779   -0.033113
  C    +0.056826   +0.539692   +0.027324
  O    +1.318288   -0.136045   -0.092331
  H    -2.106046   +0.213165   +0.019610
  H    -1.194300   -0.969919   -0.965352
  H    -1.186683   -1.098361   +0.810904
  H    +0.003975   +1.243975   -0.807833
  H    +0.008974   +1.125620   +0.954010
  H    +1.338290   -0.744977   +0.689713
  H    -3.038085   +0.823688   +0.072338
 10
 * E = -152.575965 hartree ; s =  0.4000 (fw40)
  C    -1.153445   -0.414637   -0.033087
  C    +0.057247   +0.539272   +0.027282
  O    +1.318332   -0.135972   -0.092319
  H    -2.075349   +0.192275   +0.017802
  H    -1.188232   -0.972176   -0.963560
  H    -1.180695   -1.100356   +0.808778
  H    +0.003977   +1.243794   -0.807708
  H    +0.008951   +1.125474   +0.953866
  H    +1.338182   -0.744963   +0.689604
  H    -3.059134   +0.837480   +0.073513
 10
 * E = -152.578417 hartree ; s =  0.5000 (fw50)
  C    -1.152157   -0.415689   -0.033156
  C    +0.057820   +0.538760   +0.027229
  O    +1.318440   -0.135882   -0.092301
  H    -2.059625   +0.180017   +0.016719
  H    -1.180409   -0.975260   -0.962008
  H    -1.173004   -1.103192   +0.806756
  H    +0.003984   +1.243476   -0.807577
  H    +0.008933   +1.125199   +0.953678
  H    +1.338080   -0.744981   +0.689464
  H    -3.086603   +0.855500   +0.075049
 10
 * E = -152.580560 hartree ; s =  0.6000 (fw60)
  C    -1.149944   -0.417366   -0.033275
  C    +0.058464   +0.538292   +0.027178
  O    +1.318643   -0.135803   -0.092282
  H    -2.054445   +0.173220   +0.016112
  H    -1.172317   -0.978557   -0.961100
  H    -1.165075   -1.106316   +0.805344
  H    +0.004036   +1.243075   -0.807505
  H    +0.008961   +1.124846   +0.953516
  H    +1.338039   -0.745044   +0.689311
  H    -3.115824   +0.874708   +0.076685
 10
 * E = -152.582510 hartree ; s =  0.7000 (fw70)
  C    -1.147576   -0.419219   -0.033408
  C    +0.059140   +0.537911   +0.027132
  O    +1.318948   -0.135739   -0.092264
  H    -2.052537   +0.167312   +0.015601
  H    -1.164473   -0.981730   -0.960554
  H    -1.157412   -1.109359   +0.804323
  H    +0.004153   +1.242657   -0.807506
  H    +0.009066   +1.124480   +0.953405
  H    +1.338075   -0.745153   +0.689152
  H    -3.145213   +0.894080   +0.078335
 10
 * E = -152.584285 hartree ; s =  0.8000 (fw80)
  C    -1.145233   -0.421159   -0.033549
  C    +0.059829   +0.537619   +0.027091
  O    +1.319354   -0.135690   -0.092245
  H    -2.051808   +0.161190   +0.015087
  H    -1.156939   -0.984752   -0.960178
  H    -1.150069   -1.112259   +0.803506
  H    +0.004338   +1.242257   -0.807563
  H    +0.009249   +1.124146   +0.953338
  H    +1.338197   -0.745302   +0.688982
  H    -3.174630   +0.913529   +0.079992
 10
 * E = -152.585900 hartree ; s =  0.9000 (fw90)
  C    -1.142941   -0.423174   -0.033697
  C    +0.060519   +0.537408   +0.027057
  O    +1.319861   -0.135650   -0.092225
  H    -2.051751   +0.154793   +0.014553
  H    -1.149725   -0.987666   -0.959899
  H    -1.143057   -1.115053   +0.802815
  H    +0.004583   +1.241896   -0.807660
  H    +0.009499   +1.123859   +0.953300
  H    +1.338409   -0.745491   +0.688802
  H    -3.204050   +0.933055   +0.081653
 10
 * E = -152.587364 hartree ; s =  1.0000 (fw100)
  C    -1.140707   -0.425267   -0.033849
  C    +0.061208   +0.537261   +0.027027
  O    +1.320466   -0.135610   -0.092205
  H    -2.052129   +0.148218   +0.014002
  H    -1.142837   -0.990515   -0.959688
  H    -1.136375   -1.117779   +0.802215
  H    +0.004877   +1.241574   -0.807780
  H    +0.009803   +1.123625   +0.953281
  H    +1.338713   -0.745712   +0.688610
  H    -3.233466   +0.952657   +0.083322
 10
 * E = -152.588692 hartree ; s =  1.1000 (fw110)
  C    -1.138530   -0.427430   -0.034007
  C    +0.061888   +0.537157   +0.026997
  O    +1.321162   -0.135563   -0.092182
  H    -2.052778   +0.141584   +0.013438
  H    -1.136279   -0.993332   -0.959524
  H    -1.130030   -1.120463   +0.801685
  H    +0.005199   +1.241287   -0.807916
  H    +0.010134   +1.123432   +0.953268
  H    +1.339109   -0.745955   +0.688404
  H    -3.262875   +0.972340   +0.084997
 10
 * E = -152.589893 hartree ; s =  1.2000 (fw120)
  C    -1.136406   -0.429661   -0.034170
  C    +0.062559   +0.537068   +0.026967
  O    +1.321943   -0.135497   -0.092153
  H    -2.053560   +0.134995   +0.012867
  H    -1.130056   -0.996135   -0.959395
  H    -1.124025   -1.123119   +0.801211
  H    +0.005529   +1.241016   -0.808061
  H    +0.010469   +1.123265   +0.953254
  H    +1.339602   -0.746218   +0.688182
  H    -3.292281   +0.992109   +0.086677
 10
 * E = -152.590977 hartree ; s =  1.3000 (fw130)
  C    -1.134332   -0.431952   -0.034338
  C    +0.063218   +0.536974   +0.026937
  O    +1.322805   -0.135397   -0.092118
  H    -2.054369   +0.128544   +0.012290
  H    -1.124176   -0.998932   -0.959296
  H    -1.118368   -1.125752   +0.800786
  H    +0.005842   +1.240736   -0.808210
  H    +0.010783   +1.123098   +0.953236
  H    +1.340193   -0.746488   +0.687940
  H    -3.321685   +1.011968   +0.088367
 10
 * E = -152.591952 hartree ; s =  1.4000 (fw140)
  C    -1.132306   -0.434296   -0.034509
  C    +0.063866   +0.536843   +0.026900
  O    +1.323744   -0.135254   -0.092075
  H    -2.055125   +0.122309   +0.011713
  H    -1.118646   -1.001722   -0.959221
  H    -1.113070   -1.128360   +0.800409
  H    +0.006124   +1.240425   -0.808363
  H    +0.011055   +1.122903   +0.953211
  H    +1.340887   -0.746754   +0.687676
  H    -3.351095   +1.031919   +0.090064
 10
 * E = -152.592829 hartree ; s =  1.5000 (fw150)
  C    -1.130329   -0.436683   -0.034689
  C    +0.064506   +0.536646   +0.026857
  O    +1.324762   -0.135056   -0.092024
  H    -2.055772   +0.116349   +0.011137
  H    -1.113476   -1.004511   -0.959171
  H    -1.108139   -1.130937   +0.800077
  H    +0.006358   +1.240053   -0.808520
  H    +0.011268   +1.122651   +0.953172
  H    +1.341692   -0.747008   +0.687388
  H    -3.380509   +1.051959   +0.091769
 10
 * E = -152.593614 hartree ; s =  1.6000 (fw160)
  C    -1.128405   -0.439101   -0.034869
  C    +0.065133   +0.536361   +0.026805
  O    +1.325856   -0.134792   -0.091962
  H    -2.056275   +0.110714   +0.010564
  H    -1.108674   -1.007292   -0.959136
  H    -1.103586   -1.133483   +0.799788
  H    +0.006533   +1.239598   -0.808679
  H    +0.011413   +1.122316   +0.953118
  H    +1.342623   -0.747241   +0.687074
  H    -3.409931   +1.072088   +0.093480
 10
 * E = -152.594318 hartree ; s =  1.7000 (fw170)
  C    -1.126537   -0.441541   -0.035052
  C    +0.065751   +0.535964   +0.026743
  O    +1.327031   -0.134454   -0.091889
  H    -2.056612   +0.105429   +0.009994
  H    -1.104245   -1.010064   -0.959116
  H    -1.099413   -1.135991   +0.799546
  H    +0.006643   +1.239039   -0.808839
  H    +0.011477   +1.121877   +0.953048
  H    +1.343695   -0.747446   +0.686736
  H    -3.439361   +1.092299   +0.095200
