 10
 * E = -152.598415 hartree ; s = -1.0000 (bw100)
  C    -1.241748   -0.295264   +0.077908
  C    +0.093472   +0.321542   -0.325618
  O    +1.255809   -0.375411   +0.015132
  H    -2.066319   +0.354973   -0.196633
  H    -1.364691   -1.243666   -0.441518
  H    -1.291025   -0.483475   +1.147084
  H    +0.141858   +0.657450   -1.361026
  H    +0.140249   +1.754059   +0.443860
  H    +1.156904   -0.600522   +0.974235
  H    +0.151515   +2.385903   +0.789685
 10
 * E = -152.596146 hartree ; s = -0.9000 (bw90)
  C    -1.241408   -0.294636   +0.077937
  C    +0.093852   +0.328087   -0.321712
  O    +1.255194   -0.375518   +0.014928
  H    -2.067207   +0.354040   -0.196625
  H    -1.361207   -1.242678   -0.442874
  H    -1.291638   -0.484058   +1.146817
  H    +0.140591   +0.655031   -1.360253
  H    +0.139468   +1.733001   +0.432858
  H    +1.157957   -0.599950   +0.974456
  H    +0.151118   +2.367451   +0.779481
 10
 * E = -152.593694 hartree ; s = -0.8000 (bw80)
  C    -1.241153   -0.294187   +0.077898
  C    +0.094195   +0.334930   -0.317800
  O    +1.254735   -0.375711   +0.014730
  H    -2.067989   +0.353217   -0.196591
  H    -1.358332   -1.241936   -0.444023
  H    -1.292117   -0.484513   +1.146547
  H    +0.139347   +0.652230   -1.359623
  H    +0.138696   +1.711675   +0.421692
  H    +1.158834   -0.599435   +0.974676
  H    +0.150738   +2.349669   +0.769677
 10
 * E = -152.591050 hartree ; s = -0.7000 (bw70)
  C    -1.240985   -0.293917   +0.077793
  C    +0.094483   +0.342041   -0.313901
  O    +1.254439   -0.375994   +0.014541
  H    -2.068643   +0.352517   -0.196546
  H    -1.356065   -1.241430   -0.444960
  H    -1.292458   -0.484845   +1.146277
  H    +0.138143   +0.649089   -1.359144
  H    +0.137920   +1.689589   +0.410093
  H    +1.159528   -0.598966   +0.974894
  H    +0.150386   +2.333228   +0.760634
 10
 * E = -152.588187 hartree ; s = -0.6000 (bw60)
  C    -1.240900   -0.293824   +0.077630
  C    +0.094696   +0.349279   -0.310081
  O    +1.254311   -0.376362   +0.014366
  H    -2.069150   +0.351955   -0.196497
  H    -1.354403   -1.241135   -0.445672
  H    -1.292663   -0.485058   +1.146019
  H    +0.137016   +0.645710   -1.358838
  H    +0.137119   +1.665534   +0.397403
  H    +1.160032   -0.598534   +0.975097
  H    +0.150103   +2.319984   +0.753356
 10
 * E = -152.584998 hartree ; s = -0.5000 (bw50)
  C    -1.240881   -0.293883   +0.077429
  C    +0.094821   +0.356158   -0.306565
  O    +1.254329   -0.376784   +0.014211
  H    -2.069498   +0.351536   -0.196457
  H    -1.353318   -1.240996   -0.446148
  H    -1.292748   -0.485170   +1.145787
  H    +0.136032   +0.642378   -1.358721
  H    +0.136284   +1.638295   +0.382947
  H    +1.160347   -0.598143   +0.975264
  H    +0.149956   +2.313273   +0.749646
 10
 * E = -152.581360 hartree ; s = -0.4000 (bw40)
  C    -1.240898   -0.294026   +0.077224
  C    +0.094866   +0.362061   -0.303617
  O    +1.254439   -0.377196   +0.014091
  H    -2.069714   +0.351247   -0.196427
  H    -1.352699   -1.240948   -0.446415
  H    -1.292758   -0.485211   +1.145599
  H    +0.135242   +0.639449   -1.358746
  H    +0.135451   +1.608893   +0.367269
  H    +1.160515   -0.597807   +0.975381
  H    +0.149975   +2.314512   +0.750268
 10
 * E = -152.577529 hartree ; s = -0.3000 (bw30)
  C    -1.240928   -0.294200   +0.077031
  C    +0.094861   +0.366976   -0.301204
  O    +1.254590   -0.377576   +0.013997
  H    -2.069852   +0.351041   -0.196406
  H    -1.352361   -1.240938   -0.446552
  H    -1.292731   -0.485220   +1.145450
  H    +0.134611   +0.636956   -1.358842
  H    +0.134652   +1.579140   +0.351357
  H    +1.160597   -0.597516   +0.975458
  H    +0.150116   +2.321429   +0.753975
 10
 * E = -152.574157 hartree ; s = -0.2000 (bw20)
  C    -1.240958   -0.294380   +0.076849
  C    +0.094821   +0.371216   -0.299152
  O    +1.254757   -0.377935   +0.013919
  H    -2.069955   +0.350875   -0.196386
  H    -1.352168   -1.240943   -0.446617
  H    -1.292694   -0.485214   +1.145323
  H    +0.134072   +0.634741   -1.358960
  H    +0.133888   +1.549702   +0.335591
  H    +1.160634   -0.597249   +0.975514
  H    +0.150327   +2.331638   +0.759466
 10
 * E = -152.571904 hartree ; s = -0.1000 (bw10)
  C    -1.240988   -0.294564   +0.076669
  C    +0.094758   +0.375017   -0.297339
  O    +1.254938   -0.378285   +0.013849
  H    -2.070045   +0.350727   -0.196366
  H    -1.352057   -1.240955   -0.446644
  H    -1.292654   -0.485202   +1.145205
  H    +0.133575   +0.632660   -1.359082
  H    +0.133155   +1.520681   +0.320039
  H    +1.160647   -0.596989   +0.975564
  H    +0.150585   +2.343877   +0.766058
 10
 * E = -152.571140 hartree ; s =  0.0000 (saddle)
  C    -1.241025   -0.294757   +0.076487
  C    +0.094673   +0.378477   -0.295723
  O    +1.255142   -0.378642   +0.013774
  H    -2.070138   +0.350581   -0.196345
  H    -1.351995   -1.240982   -0.446648
  H    -1.292618   -0.485187   +1.145095
  H    +0.133101   +0.630615   -1.359190
  H    +0.132451   +1.492147   +0.304724
  H    +1.160618   -0.596724   +0.975660
  H    +0.150876   +2.357718   +0.773528
 10
 * E = -152.571838 hartree ; s =  0.1000 (fw10)
  C    -1.241018   -0.294944   +0.076288
  C    +0.094562   +0.381686   -0.294235
  O    +1.255320   -0.379008   +0.013711
  H    -2.070213   +0.350430   -0.196327
  H    -1.351923   -1.240999   -0.446660
  H    -1.292566   -0.485177   +1.144967
  H    +0.132577   +0.628510   -1.359293
  H    +0.131775   +1.464021   +0.289676
  H    +1.160663   -0.596449   +0.975679
  H    +0.151197   +2.372739   +0.781591
 10
 * E = -152.573630 hartree ; s =  0.2000 (fw20)
  C    -1.241018   -0.295146   +0.076077
  C    +0.094418   +0.384534   -0.292968
  O    +1.255531   -0.379412   +0.013634
  H    -2.070307   +0.350257   -0.196307
  H    -1.351856   -1.241036   -0.446674
  H    -1.292516   -0.485163   +1.144832
  H    +0.132017   +0.626266   -1.359386
  H    +0.131148   +1.436750   +0.275060
  H    +1.160680   -0.596138   +0.975761
  H    +0.151555   +2.389593   +0.790653
 10
 * E = -152.575970 hartree ; s =  0.3000 (fw30)
  C    -1.241018   -0.295370   +0.075841
  C    +0.094225   +0.386890   -0.291993
  O    +1.255771   -0.379882   +0.013543
  H    -2.070419   +0.350049   -0.196286
  H    -1.351776   -1.241102   -0.446707
  H    -1.292458   -0.485148   +1.144673
  H    +0.131371   +0.623748   -1.359512
  H    +0.130598   +1.410904   +0.261186
  H    +1.160703   -0.595762   +0.975871
  H    +0.151965   +2.408870   +0.801020
 10
 * E = -152.578346 hartree ; s =  0.4000 (fw40)
  C    -1.241023   -0.295637   +0.075562
  C    +0.093962   +0.388464   -0.291465
  O    +1.256053   -0.380458   +0.013432
  H    -2.070558   +0.349784   -0.196272
  H    -1.351680   -1.241223   -0.446777
  H    -1.292382   -0.485138   +1.144474
  H    +0.130589   +0.620793   -1.359766
  H    +0.130181   +1.387806   +0.248723
  H    +1.160745   -0.595281   +0.976018
  H    +0.152447   +2.431606   +0.813252
 10
 * E = -152.580469 hartree ; s =  0.5000 (fw50)
  C    -1.241047   -0.295982   +0.075230
  C    +0.093618   +0.388896   -0.291569
  O    +1.256386   -0.381192   +0.013287
  H    -2.070715   +0.349444   -0.196288
  H    -1.351592   -1.241455   -0.446896
  H    -1.292269   -0.485139   +1.144218
  H    +0.129636   +0.617254   -1.360332
  H    +0.129974   +1.369707   +0.238776
  H    +1.160826   -0.594653   +0.976203
  H    +0.153018   +2.458517   +0.827732
 10
 * E = -152.582327 hartree ; s =  0.6000 (fw60)
  C    -1.241115   -0.296443   +0.074853
  C    +0.093233   +0.388167   -0.292294
  O    +1.256757   -0.382101   +0.013104
  H    -2.070862   +0.349030   -0.196368
  H    -1.351590   -1.241851   -0.447051
  H    -1.292111   -0.485175   +1.143914
  H    +0.128557   +0.613186   -1.361382
  H    +0.129999   +1.358090   +0.231984
  H    +1.160970   -0.593880   +0.976412
  H    +0.153655   +2.488594   +0.843924
 10
 * E = -152.584001 hartree ; s =  0.7000 (fw70)
  C    -1.241240   -0.297038   +0.074454
  C    +0.092875   +0.386787   -0.293364
  O    +1.257136   -0.383159   +0.012886
  H    -2.070976   +0.348563   -0.196531
  H    -1.351743   -1.242435   -0.447210
  H    -1.291925   -0.485270   +1.143589
  H    +0.127448   +0.608781   -1.362872
  H    +0.130172   +1.351587   +0.227475
  H    +1.161195   -0.593014   +0.976632
  H    +0.154315   +2.519950   +0.860819
 10
 * E = -152.585532 hartree ; s =  0.8000 (fw80)
  C    -1.241417   -0.297761   +0.074048
  C    +0.092585   +0.385242   -0.294534
  O    +1.257495   -0.384339   +0.012640
  H    -2.071056   +0.348037   -0.196780
  H    -1.352065   -1.243196   -0.447350
  H    -1.291738   -0.485448   +1.143262
  H    +0.126368   +0.604156   -1.364625
  H    +0.130404   +1.347941   +0.223976
  H    +1.161526   -0.592087   +0.976865
  H    +0.154975   +2.551639   +0.877911
 10
 * E = -152.586934 hartree ; s =  0.9000 (fw90)
  C    -1.241628   -0.298596   +0.073641
  C    +0.092371   +0.383749   -0.295704
  O    +1.257813   -0.385623   +0.012368
  H    -2.071113   +0.347443   -0.197104
  H    -1.352523   -1.244107   -0.447466
  H    -1.291578   -0.485717   +1.142940
  H    +0.125355   +0.599379   -1.366492
  H    +0.130661   +1.345807   +0.220756
  H    +1.161977   -0.591111   +0.977114
  H    +0.155631   +2.583400   +0.895064
 10
 * E = -152.588217 hartree ; s =  1.0000 (fw100)
  C    -1.241853   -0.299519   +0.073242
  C    +0.092230   +0.382367   -0.296844
  O    +1.258075   -0.386992   +0.012072
  H    -2.071163   +0.346760   -0.197492
  H    -1.353061   -1.245139   -0.447557
  H    -1.291463   -0.486085   +1.142627
  H    +0.124431   +0.594506   -1.368393
  H    +0.130936   +1.344588   +0.217521
  H    +1.162559   -0.590087   +0.977383
  H    +0.156280   +2.615163   +0.912248
 10
 * E = -152.589388 hartree ; s =  1.1000 (fw110)
  C    -1.242076   -0.300505   +0.072854
  C    +0.092151   +0.381092   -0.297956
  O    +1.258267   -0.388438   +0.011756
  H    -2.071221   +0.345976   -0.197931
  H    -1.353619   -1.246258   -0.447625
  H    -1.291401   -0.486551   +1.142319
  H    +0.123606   +0.589592   -1.370292
  H    +0.131233   +1.344002   +0.214179
  H    +1.163273   -0.589005   +0.977672
  H    +0.156920   +2.646904   +0.929455
 10
 * E = -152.590456 hartree ; s =  1.2000 (fw120)
  C    -1.242278   -0.301537   +0.072479
  C    +0.092123   +0.379905   -0.299043
  O    +1.258377   -0.389949   +0.011423
  H    -2.071295   +0.345078   -0.198412
  H    -1.354139   -1.247441   -0.447674
  H    -1.291391   -0.487108   +1.142021
  H    +0.122890   +0.584676   -1.372176
  H    +0.131566   +1.343884   +0.210703
  H    +1.164114   -0.587847   +0.977985
  H    +0.157555   +2.678613   +0.946685
 10
 * E = -152.591428 hartree ; s =  1.3000 (fw130)
  C    -1.242453   -0.302594   +0.072120
  C    +0.092134   +0.378786   -0.300120
  O    +1.258400   -0.391514   +0.011077
  H    -2.071393   +0.344062   -0.198929
  H    -1.354569   -1.248668   -0.447708
  H    -1.291421   -0.487742   +1.141729
  H    +0.122279   +0.579794   -1.374037
  H    +0.131945   +1.344106   +0.207106
  H    +1.165069   -0.586594   +0.978323
  H    +0.158179   +2.710285   +0.963936
 10
 * E = -152.592311 hartree ; s =  1.4000 (fw140)
  C    -1.242590   -0.303664   +0.071776
  C    +0.092174   +0.377716   -0.301196
  O    +1.258333   -0.393126   +0.010725
  H    -2.071521   +0.342926   -0.199476
  H    -1.354861   -1.249924   -0.447726
  H    -1.291474   -0.488435   +1.141444
  H    +0.121768   +0.574976   -1.375880
  H    +0.132375   +1.344562   +0.203419
  H    +1.166124   -0.585225   +0.978692
  H    +0.158793   +2.741917   +0.981214
 10
 * E = -152.593111 hartree ; s =  1.5000 (fw150)
  C    -1.242682   -0.304734   +0.071449
  C    +0.092234   +0.376680   -0.302279
  O    +1.258175   -0.394785   +0.010363
  H    -2.071681   +0.341672   -0.200054
  H    -1.354987   -1.251199   -0.447725
  H    -1.291524   -0.489166   +1.141169
  H    +0.121347   +0.570245   -1.377702
  H    +0.132858   +1.345168   +0.199673
  H    +1.167259   -0.583712   +0.979092
  H    +0.159396   +2.773509   +0.998518
 10
 * E = -152.593834 hartree ; s =  1.6000 (fw160)
  C    -1.242728   -0.305798   +0.071135
  C    +0.092303   +0.375669   -0.303379
  O    +1.257926   -0.396490   +0.009994
  H    -2.071872   +0.340302   -0.200658
  H    -1.354926   -1.252490   -0.447701
  H    -1.291551   -0.489911   +1.140904
  H    +0.121000   +0.565626   -1.379508
  H    +0.133397   +1.345854   +0.195911
  H    +1.168456   -0.582033   +0.979524
  H    +0.159990   +2.805062   +1.015851
 10
 * E = -152.594487 hartree ; s =  1.7000 (fw170)
  C    -1.242724   -0.306852   +0.070828
  C    +0.092382   +0.374674   -0.304503
  O    +1.257590   -0.398235   +0.009624
  H    -2.072092   +0.338820   -0.201291
  H    -1.354676   -1.253800   -0.447644
  H    -1.291526   -0.490643   +1.140650
  H    +0.120715   +0.561140   -1.381300
  H    +0.133990   +1.346563   +0.192164
  H    +1.169699   -0.580170   +0.979992
  H    +0.160573   +2.836575   +1.033215
 10
 * E = -152.595075 hartree ; s =  1.8000 (fw180)
  C    -1.242671   -0.307895   +0.070528
  C    +0.092464   +0.373688   -0.305654
  O    +1.257170   -0.400025   +0.009252
  H    -2.072340   +0.337235   -0.201956
  H    -1.354237   -1.255134   -0.447539
  H    -1.291433   -0.491338   +1.140407
  H    +0.120481   +0.556808   -1.383079
  H    +0.134630   +1.347250   +0.188470
  H    +1.170976   -0.578101   +0.980495
  H    +0.161145   +2.868049   +1.050606
 10
 * E = -152.595603 hartree ; s =  1.9000 (fw190)
  C    -1.242571   -0.308926   +0.070228
  C    +0.092546   +0.372708   -0.306837
  O    +1.256673   -0.401856   +0.008879
  H    -2.072611   +0.335550   -0.202659
  H    -1.353624   -1.256503   -0.447373
  H    -1.291257   -0.491968   +1.140174
  H    +0.120288   +0.552649   -1.384846
  H    +0.135307   +1.347881   +0.184857
  H    +1.172278   -0.575819   +0.981031
  H    +0.161707   +2.899484   +1.068027
