 10
 * E = -152.599164 hartree ; s = -1.0000 (bw100)
  C    -1.216424   -0.261330   +0.111630
  C    +0.118835   +0.356085   -0.291610
  O    +1.281109   -0.341579   +0.048865
  H    -2.041032   +0.388871   -0.162877
  H    -1.339237   -1.209744   -0.407840
  H    -1.265674   -0.449504   +1.180809
  H    +0.166961   +0.690454   -1.327605
  H    +0.165697   +1.795923   +0.482045
  H    +1.179344   -0.569908   +1.006938
  H    +0.177276   +2.432750   +0.831038
 10
 * E = -152.596717 hartree ; s = -0.9000 (bw90)
  C    -1.216123   -0.260771   +0.111646
  C    +0.119163   +0.362005   -0.288069
  O    +1.280591   -0.341703   +0.048660
  H    -2.041841   +0.388028   -0.162866
  H    -1.336038   -1.208838   -0.409082
  H    -1.266217   -0.450021   +1.180556
  H    +0.165760   +0.688063   -1.326938
  H    +0.164876   +1.771273   +0.469041
  H    +1.180932   -0.568742   +1.007337
  H    +0.176794   +2.411387   +0.819144
 10
 * E = -152.594068 hartree ; s = -0.8000 (bw80)
  C    -1.215889   -0.260356   +0.111605
  C    +0.119454   +0.368163   -0.284528
  O    +1.280196   -0.341888   +0.048471
  H    -2.042557   +0.387279   -0.162831
  H    -1.333366   -1.208138   -0.410139
  H    -1.266649   -0.450429   +1.180305
  H    +0.164596   +0.685439   -1.326363
  H    +0.164064   +1.746491   +0.455950
  H    +1.182319   -0.567719   +1.007707
  H    +0.176332   +2.390731   +0.807683
 10
 * E = -152.591215 hartree ; s = -0.7000 (bw70)
  C    -1.215721   -0.260082   +0.111514
  C    +0.119703   +0.374542   -0.281003
  O    +1.279928   -0.342137   +0.048296
  H    -2.043171   +0.386629   -0.162783
  H    -1.331210   -1.207625   -0.411014
  H    -1.266974   -0.450734   +1.180058
  H    +0.163483   +0.682613   -1.325878
  H    +0.163257   +1.721463   +0.442714
  H    +1.183485   -0.566818   +1.008054
  H    +0.175895   +2.371107   +0.796828
 10
 * E = -152.588163 hartree ; s = -0.6000 (bw60)
  C    -1.215616   -0.259946   +0.111378
  C    +0.119900   +0.381107   -0.277505
  O    +1.279782   -0.342448   +0.048140
  H    -2.043673   +0.386083   -0.162732
  H    -1.329542   -1.207285   -0.411709
  H    -1.267197   -0.450951   +1.179822
  H    +0.162437   +0.679629   -1.325496
  H    +0.162453   +1.695918   +0.429185
  H    +1.184416   -0.566018   +1.008379
  H    +0.175497   +2.353287   +0.786994
 10
 * E = -152.584920 hartree ; s = -0.5000 (bw50)
  C    -1.215570   -0.259937   +0.111205
  C    +0.120040   +0.387753   -0.274072
  O    +1.279754   -0.342811   +0.047997
  H    -2.044060   +0.385643   -0.162682
  H    -1.328333   -1.207086   -0.412224
  H    -1.267325   -0.451086   +1.179601
  H    +0.161474   +0.676559   -1.325242
  H    +0.161639   +1.669233   +0.415019
  H    +1.185105   -0.565301   +1.008672
  H    +0.175184   +2.339338   +0.779297
 10
 * E = -152.581473 hartree ; s = -0.4000 (bw40)
  C    -1.215567   -0.260036   +0.111010
  C    +0.120116   +0.394161   -0.270842
  O    +1.279826   -0.343207   +0.047875
  H    -2.044333   +0.385308   -0.162642
  H    -1.327545   -1.206990   -0.412558
  H    -1.267371   -0.451156   +1.179404
  H    +0.160629   +0.673573   -1.325135
  H    +0.160808   +1.640758   +0.399857
  H    +1.185553   -0.564660   +1.008917
  H    +0.175036   +2.333326   +0.775939
 10
 * E = -152.577850 hartree ; s = -0.3000 (bw30)
  C    -1.215591   -0.260194   +0.110813
  C    +0.120137   +0.399830   -0.268036
  O    +1.279961   -0.343595   +0.047777
  H    -2.044506   +0.385068   -0.162612
  H    -1.327094   -1.206954   -0.412738
  H    -1.267365   -0.451180   +1.179240
  H    +0.159937   +0.670911   -1.325150
  H    +0.159987   +1.611224   +0.384083
  H    +1.185798   -0.564100   +1.009095
  H    +0.175119   +2.338076   +0.778434
 10
 * E = -152.574445 hartree ; s = -0.2000 (bw20)
  C    -1.215621   -0.260370   +0.110628
  C    +0.120120   +0.404630   -0.265691
  O    +1.280122   -0.343952   +0.047700
  H    -2.044622   +0.384890   -0.162591
  H    -1.326853   -1.206945   -0.412820
  H    -1.267338   -0.451182   +1.179107
  H    +0.159374   +0.668619   -1.325227
  H    +0.159212   +1.582045   +0.368469
  H    +1.185918   -0.563610   +1.009218
  H    +0.175385   +2.351404   +0.785584
 10
 * E = -152.572006 hartree ; s = -0.1000 (bw10)
  C    -1.215650   -0.260550   +0.110453
  C    +0.120077   +0.408788   -0.263685
  O    +1.280293   -0.344287   +0.047633
  H    -2.044711   +0.384744   -0.162571
  H    -1.326725   -1.206945   -0.412850
  H    -1.267307   -0.451174   +1.178994
  H    +0.158887   +0.666569   -1.325318
  H    +0.158481   +1.553687   +0.353279
  H    +1.185974   -0.563154   +1.009316
  H    +0.175765   +2.369907   +0.795541
 10
 * E = -152.571140 hartree ; s =  0.0000 (saddle)
  C    -1.215685   -0.260732   +0.110284
  C    +0.120013   +0.412502   -0.261926
  O    +1.280482   -0.344617   +0.047570
  H    -2.044798   +0.384606   -0.162549
  H    -1.326655   -1.206957   -0.412851
  H    -1.267278   -0.451162   +1.178891
  H    +0.158441   +0.664640   -1.325393
  H    +0.157791   +1.526172   +0.338520
  H    +1.185958   -0.562699   +1.009457
  H    +0.176216   +2.391742   +0.807325
 10
 * E = -152.571968 hartree ; s =  0.1000 (fw10)
  C    -1.215680   -0.260901   +0.110103
  C    +0.119924   +0.415932   -0.260306
  O    +1.280645   -0.344944   +0.047513
  H    -2.044871   +0.384468   -0.162530
  H    -1.326579   -1.206957   -0.412854
  H    -1.267236   -0.451154   +1.178778
  H    +0.157961   +0.662705   -1.325455
  H    +0.157135   +1.499259   +0.324126
  H    +1.186045   -0.562247   +1.009513
  H    +0.176715   +2.415590   +0.820118
 10
 * E = -152.574140 hartree ; s =  0.2000 (fw20)
  C    -1.215680   -0.261080   +0.109918
  C    +0.119812   +0.419037   -0.258883
  O    +1.280829   -0.345293   +0.047453
  H    -2.044959   +0.384313   -0.162507
  H    -1.326506   -1.206970   -0.412862
  H    -1.267199   -0.451144   +1.178661
  H    +0.157463   +0.660707   -1.325480
  H    +0.156526   +1.473309   +0.310230
  H    +1.186095   -0.561745   +1.009645
  H    +0.177266   +2.441927   +0.834274
 10
 * E = -152.577042 hartree ; s =  0.3000 (fw30)
  C    -1.215677   -0.261263   +0.109715
  C    +0.119661   +0.421762   -0.257684
  O    +1.281032   -0.345683   +0.047383
  H    -2.045067   +0.384131   -0.162477
  H    -1.326407   -1.206996   -0.412889
  H    -1.267160   -0.451134   +1.178528
  H    +0.156904   +0.658544   -1.325490
  H    +0.155984   +1.448704   +0.297043
  H    +1.186170   -0.561160   +1.009815
  H    +0.177876   +2.471109   +0.849964
 10
 * E = -152.580062 hartree ; s =  0.4000 (fw40)
  C    -1.215671   -0.261459   +0.109487
  C    +0.119459   +0.423935   -0.256805
  O    +1.281260   -0.346140   +0.047303
  H    -2.045206   +0.383904   -0.162450
  H    -1.326261   -1.207046   -0.412952
  H    -1.267117   -0.451126   +1.178364
  H    +0.156241   +0.656097   -1.325523
  H    +0.155551   +1.426382   +0.285053
  H    +1.186297   -0.560440   +1.010038
  H    +0.178566   +2.504127   +0.867716
 10
 * E = -152.582789 hartree ; s =  0.5000 (fw50)
  C    -1.215664   -0.261686   +0.109222
  C    +0.119189   +0.425274   -0.256390
  O    +1.281517   -0.346698   +0.047202
  H    -2.045378   +0.383608   -0.162434
  H    -1.326053   -1.207145   -0.413072
  H    -1.267057   -0.451130   +1.178156
  H    +0.155433   +0.653245   -1.325690
  H    +0.155296   +1.408028   +0.275113
  H    +1.186516   -0.559517   +1.010321
  H    +0.179359   +2.541984   +0.888076
 10
 * E = -152.585112 hartree ; s =  0.6000 (fw60)
  C    -1.215673   -0.261967   +0.108921
  C    +0.118862   +0.425587   -0.256519
  O    +1.281800   -0.347385   +0.047073
  H    -2.045575   +0.383236   -0.162453
  H    -1.325805   -1.207331   -0.413258
  H    -1.266971   -0.451161   +1.177899
  H    +0.154473   +0.649953   -1.326162
  H    +0.155271   +1.395423   +0.268073
  H    +1.186873   -0.558350   +1.010660
  H    +0.180236   +2.584321   +0.910852
 10
 * E = -152.587108 hartree ; s =  0.7000 (fw70)
  C    -1.215718   -0.262331   +0.108595
  C    +0.118522   +0.425085   -0.257058
  O    +1.282089   -0.348201   +0.046916
  H    -2.045776   +0.382789   -0.162531
  H    -1.325572   -1.207637   -0.413495
  H    -1.266860   -0.451240   +1.177606
  H    +0.153415   +0.646329   -1.327039
  H    +0.155448   +1.388439   +0.263723
  H    +1.187406   -0.556976   +1.011043
  H    +0.181156   +2.629054   +0.934928
 10
 * E = -152.588852 hartree ; s =  0.8000 (fw80)
  C    -1.215806   -0.262792   +0.108263
  C    +0.118224   +0.424227   -0.257773
  O    +1.282362   -0.349131   +0.046729
  H    -2.045966   +0.382274   -0.162690
  H    -1.325401   -1.208077   -0.413757
  H    -1.266743   -0.451395   +1.177299
  H    +0.152325   +0.642481   -1.328239
  H    +0.155738   +1.385135   +0.260909
  H    +1.188147   -0.555446   +1.011461
  H    +0.182079   +2.674493   +0.959403
 10
 * E = -152.590382 hartree ; s =  0.9000 (fw90)
  C    -1.215930   -0.263348   +0.107931
  C    +0.117997   +0.423331   -0.258507
  O    +1.282596   -0.350166   +0.046515
  H    -2.046146   +0.381684   -0.162935
  H    -1.325292   -1.208642   -0.414029
  H    -1.266645   -0.451647   +1.176991
  H    +0.151251   +0.638469   -1.329612
  H    +0.156083   +1.383792   +0.258648
  H    +1.189116   -0.553777   +1.011921
  H    +0.182996   +2.720050   +0.983966
 10
 * E = -152.591722 hartree ; s =  1.0000 (fw100)
  C    -1.216073   -0.263988   +0.107609
  C    +0.117845   +0.422526   -0.259207
  O    +1.282771   -0.351294   +0.046273
  H    -2.046326   +0.380999   -0.163261
  H    -1.325212   -1.209317   -0.414301
  H    -1.266596   -0.452015   +1.176690
  H    +0.150232   +0.634352   -1.331041
  H    +0.156463   +1.383518   +0.256441
  H    +1.190330   -0.551958   +1.012424
  H    +0.183900   +2.765585   +1.008551
 10
 * E = -152.592890 hartree ; s =  1.1000 (fw110)
  C    -1.216216   -0.264696   +0.107305
  C    +0.117766   +0.421837   -0.259859
  O    +1.282868   -0.352506   +0.046005
  H    -2.046516   +0.380198   -0.163660
  H    -1.325113   -1.210074   -0.414573
  H    -1.266615   -0.452506   +1.176397
  H    +0.149298   +0.630193   -1.332462
  H    +0.156879   +1.383907   +0.254091
  H    +1.191784   -0.549955   +1.012973
  H    +0.184792   +2.811061   +1.033145
 10
 * E = -152.593906 hartree ; s =  1.2000 (fw120)
  C    -1.216337   -0.265451   +0.107024
  C    +0.117751   +0.421253   -0.260473
  O    +1.282872   -0.353789   +0.045713
  H    -2.046724   +0.379265   -0.164123
  H    -1.324935   -1.210889   -0.414843
  H    -1.266707   -0.453122   +1.176119
  H    +0.148474   +0.626056   -1.333848
  H    +0.157345   +1.384743   +0.251551
  H    +1.193465   -0.547727   +1.013573
  H    +0.185667   +2.856466   +1.057747
 10
 * E = -152.594786 hartree ; s =  1.3000 (fw130)
  C    -1.216421   -0.266232   +0.106769
  C    +0.117787   +0.420749   -0.261066
  O    +1.282764   -0.355137   +0.045401
  H    -2.046958   +0.378190   -0.164639
  H    -1.324614   -1.211740   -0.415105
  H    -1.266867   -0.453851   +1.175851
  H    +0.147773   +0.621999   -1.335193
  H    +0.157879   +1.385874   +0.248829
  H    +1.195350   -0.545226   +1.014228
  H    +0.186529   +2.901792   +1.082360
 10
 * E = -152.595546 hartree ; s =  1.4000 (fw140)
  C    -1.216451   -0.267022   +0.106540
  C    +0.117856   +0.420302   -0.261656
  O    +1.282540   -0.356538   +0.045076
  H    -2.047221   +0.376966   -0.165200
  H    -1.324096   -1.212615   -0.415356
  H    -1.267067   -0.454664   +1.175595
  H    +0.147193   +0.618069   -1.336504
  H    +0.158487   +1.387173   +0.245975
  H    +1.197406   -0.542404   +1.014944
  H    +0.187373   +2.947039   +1.106988
 10
 * E = -152.596200 hartree ; s =  1.5000 (fw150)
  C    -1.216416   -0.267809   +0.106337
  C    +0.117947   +0.419892   -0.262262
  O    +1.282196   -0.357991   +0.044745
  H    -2.047511   +0.375594   -0.165803
  H    -1.323343   -1.213505   -0.415580
  H    -1.267268   -0.455525   +1.175357
  H    +0.146721   +0.614313   -1.337784
  H    +0.159173   +1.388529   +0.243058
  H    +1.199606   -0.539221   +1.015723
  H    +0.188201   +2.992213   +1.131633
 10
 * E = -152.596760 hartree ; s =  1.6000 (fw160)
  C    -1.216315   -0.268584   +0.106149
  C    +0.118045   +0.419502   -0.262902
  O    +1.281733   -0.359492   +0.044413
  H    -2.047831   +0.374081   -0.166442
  H    -1.322343   -1.214413   -0.415761
  H    -1.267415   -0.456382   +1.175136
  H    +0.146342   +0.610771   -1.339044
  H    +0.159931   +1.389851   +0.240146
  H    +1.201916   -0.535655   +1.016567
  H    +0.189012   +3.037316   +1.156299
 10
 * E = -152.597239 hartree ; s =  1.7000 (fw170)
  C    -1.216143   -0.269346   +0.105969
  C    +0.118145   +0.419127   -0.263587
  O    +1.281157   -0.361036   +0.044086
  H    -2.048174   +0.372436   -0.167121
  H    -1.321103   -1.215357   -0.415870
  H    -1.267463   -0.457184   +1.174932
  H    +0.146039   +0.607478   -1.340292
  H    +0.160744   +1.391077   +0.237312
  H    +1.204311   -0.531709   +1.017465
  H    +0.189805   +3.082351   +1.180987
 10
 * E = -152.597646 hartree ; s =  1.8000 (fw180)
  C    -1.215905   -0.270093   +0.105789
  C    +0.118244   +0.418756   -0.264325
  O    +1.280481   -0.362620   +0.043768
  H    -2.048538   +0.370666   -0.167844
  H    -1.319658   -1.216357   -0.415872
  H    -1.267378   -0.457876   +1.174748
  H    +0.145801   +0.604464   -1.341531
  H    +0.161588   +1.392160   +0.234606
  H    +1.206762   -0.527417   +1.018406
  H    +0.190580   +3.127326   +1.205697
