 10
 * E = -152.596080 hartree ; s = -1.5000 (bw150)
  C    -1.264973   -0.019425   -0.231661
  C    +0.108682   -0.554360   +0.230796
  O    +1.183440   +0.364606   -0.011106
  H    -1.486301   +0.917063   +0.261501
  H    -2.046489   -0.731989   +0.011970
  H    -1.274218   +0.147806   -1.304858
  H    +0.085693   -0.724456   +1.310882
  H    +0.301071   -1.522356   -0.248880
  H    +1.179311   +0.483665   -0.995131
  H    -1.773173   +2.475579   +1.150683
 10
 * E = -152.595371 hartree ; s = -1.4000 (bw140)
  C    -1.265067   -0.017266   -0.230197
  C    +0.108089   -0.553706   +0.230867
  O    +1.183535   +0.364569   -0.011125
  H    -1.483492   +0.918305   +0.264701
  H    -2.047880   -0.728240   +0.013686
  H    -1.275523   +0.152356   -1.302955
  H    +0.085402   -0.723931   +1.310940
  H    +0.299690   -1.521749   -0.248996
  H    +1.179064   +0.484056   -0.995101
  H    -1.764720   +2.431599   +1.125894
 10
 * E = -152.594539 hartree ; s = -1.3000 (bw130)
  C    -1.265174   -0.015175   -0.228777
  C    +0.107484   -0.553046   +0.230938
  O    +1.183644   +0.364552   -0.011136
  H    -1.480313   +0.919445   +0.268016
  H    -2.049502   -0.724248   +0.015517
  H    -1.277010   +0.157139   -1.301032
  H    +0.085040   -0.723316   +1.311013
  H    +0.298422   -1.521163   -0.249009
  H    +1.178860   +0.484419   -0.995069
  H    -1.756214   +2.387637   +1.101161
 10
 * E = -152.593566 hartree ; s = -1.2000 (bw120)
  C    -1.265307   -0.013155   -0.227406
  C    +0.106875   -0.552379   +0.231023
  O    +1.183771   +0.364552   -0.011146
  H    -1.476822   +0.920497   +0.271421
  H    -2.051384   -0.719992   +0.017466
  H    -1.278682   +0.162184   -1.299086
  H    +0.084650   -0.722652   +1.311106
  H    +0.297257   -1.520571   -0.248955
  H    +1.178682   +0.484753   -0.995044
  H    -1.747651   +2.343701   +1.076488
 10
 * E = -152.592434 hartree ; s = -1.1000 (bw110)
  C    -1.265472   -0.011206   -0.226089
  C    +0.106282   -0.551699   +0.231132
  O    +1.183918   +0.364565   -0.011149
  H    -1.473130   +0.921494   +0.274876
  H    -2.053535   -0.715460   +0.019545
  H    -1.280531   +0.167517   -1.297117
  H    +0.084280   -0.721993   +1.311226
  H    +0.296177   -1.519959   -0.248867
  H    +1.178522   +0.485053   -0.995016
  H    -1.739026   +2.299789   +1.051881
 10
 * E = -152.591122 hartree ; s = -1.0000 (bw100)
  C    -1.265675   -0.009323   -0.224831
  C    +0.105719   -0.551010   +0.231276
  O    +1.184080   +0.364585   -0.011149
  H    -1.469395   +0.922488   +0.278318
  H    -2.055945   -0.710643   +0.021776
  H    -1.282538   +0.173158   -1.295124
  H    +0.083967   -0.721384   +1.311375
  H    +0.295164   -1.519320   -0.248776
  H    +1.178362   +0.485316   -0.994990
  H    -1.730336   +2.255899   +1.027338
 10
 * E = -152.589607 hartree ; s = -0.9000 (bw90)
  C    -1.265912   -0.007497   -0.223633
  C    +0.105208   -0.550320   +0.231459
  O    +1.184250   +0.364605   -0.011149
  H    -1.465818   +0.923561   +0.281681
  H    -2.058592   -0.705543   +0.024198
  H    -1.284671   +0.179129   -1.293101
  H    +0.083742   -0.720867   +1.311553
  H    +0.294202   -1.518663   -0.248697
  H    +1.178202   +0.485542   -0.994966
  H    -1.721584   +2.212024   +1.002853
 10
 * E = -152.587863 hartree ; s = -0.8000 (bw80)
  C    -1.266183   -0.005719   -0.222489
  C    +0.104768   -0.549634   +0.231681
  O    +1.184419   +0.364624   -0.011149
  H    -1.462627   +0.924838   +0.284917
  H    -2.061433   -0.700177   +0.026856
  H    -1.286874   +0.185450   -1.291042
  H    +0.083609   -0.720468   +1.311758
  H    +0.293286   -1.517998   -0.248636
  H    +1.178048   +0.485741   -0.994943
  H    -1.712767   +2.168160   +0.978423
 10
 * E = -152.585864 hartree ; s = -0.7000 (bw70)
  C    -1.266481   -0.003985   -0.221398
  C    +0.104420   -0.548968   +0.231937
  O    +1.184577   +0.364636   -0.011149
  H    -1.460065   +0.926576   +0.288044
  H    -2.064424   -0.694584   +0.029806
  H    -1.289079   +0.192126   -1.288960
  H    +0.083554   -0.720206   +1.311983
  H    +0.292425   -1.517359   -0.248591
  H    +1.177906   +0.485923   -0.994920
  H    -1.703894   +2.124308   +0.954042
 10
 * E = -152.583581 hartree ; s = -0.6000 (bw60)
  C    -1.266786   -0.002341   -0.220378
  C    +0.104174   -0.548335   +0.232215
  O    +1.184717   +0.364639   -0.011159
  H    -1.458474   +0.929645   +0.291439
  H    -2.067558   -0.688886   +0.033097
  H    -1.291210   +0.199142   -1.286946
  H    +0.083547   -0.720087   +1.312214
  H    +0.291639   -1.516786   -0.248553
  H    +1.177790   +0.486096   -0.994899
  H    -1.694982   +2.080500   +0.929723
 10
 * E = -152.580961 hartree ; s = -0.5000 (bw50)
  C    -1.267013   -0.001053   -0.219567
  C    +0.104025   -0.547752   +0.232504
  O    +1.184835   +0.364632   -0.011169
  H    -1.458651   +0.937433   +0.296901
  H    -2.070894   -0.683372   +0.036743
  H    -1.293170   +0.206387   -1.285262
  H    +0.083555   -0.720099   +1.312438
  H    +0.290946   -1.516342   -0.248530
  H    +1.177709   +0.486268   -0.994879
  H    -1.686128   +2.037179   +0.905706
 10
 * E = -152.577784 hartree ; s = -0.4000 (bw40)
  C    -1.266990   -0.000845   -0.219351
  C    +0.103960   -0.547254   +0.232770
  O    +1.184919   +0.364619   -0.011179
  H    -1.462028   +0.957085   +0.308378
  H    -2.074260   -0.678699   +0.040417
  H    -1.294790   +0.213209   -1.284257
  H    +0.083546   -0.720192   +1.312629
  H    +0.290369   -1.516107   -0.248562
  H    +1.177676   +0.486429   -0.994865
  H    -1.678004   +1.997569   +0.883767
 10
 * E = -152.573666 hartree ; s = -0.3000 (bw30)
  C    -1.266669   -0.002000   -0.219895
  C    +0.103940   -0.546878   +0.232980
  O    +1.184968   +0.364607   -0.011189
  H    -1.468362   +0.988871   +0.326188
  H    -2.077071   -0.675310   +0.043472
  H    -1.295948   +0.218624   -1.283805
  H    +0.083526   -0.720290   +1.312769
  H    +0.289901   -1.516050   -0.248656
  H    +1.177679   +0.486554   -0.994864
  H    -1.671593   +1.966390   +0.866510
 10
 * E = -152.569052 hartree ; s = -0.2000 (bw20)
  C    -1.266193   -0.003940   -0.220887
  C    +0.103937   -0.546585   +0.233143
  O    +1.185001   +0.364595   -0.011194
  H    -1.476002   +1.026185   +0.346905
  H    -2.079291   -0.672741   +0.045924
  H    -1.296802   +0.222881   -1.283532
  H    +0.083505   -0.720362   +1.312878
  H    +0.289494   -1.516073   -0.248776
  H    +1.177698   +0.486648   -0.994867
  H    -1.666587   +1.942077   +0.853058
 10
 * E = -152.565331 hartree ; s = -0.1000 (bw10)
  C    -1.265637   -0.006292   -0.222119
  C    +0.103936   -0.546336   +0.233282
  O    +1.185024   +0.364585   -0.011194
  H    -1.484160   +1.065737   +0.368802
  H    -2.081178   -0.670523   +0.048061
  H    -1.297510   +0.226565   -1.283274
  H    +0.083485   -0.720416   +1.312972
  H    +0.289119   -1.516122   -0.248896
  H    +1.177721   +0.486726   -0.994875
  H    -1.662424   +1.921866   +0.841877
 10
 * E = -152.563913 hartree ; s =  0.0000 (saddle)
  C    -1.265013   -0.008987   -0.223542
  C    +0.103925   -0.546103   +0.233411
  O    +1.185044   +0.364575   -0.011197
  H    -1.492594   +1.106566   +0.391386
  H    -2.082933   -0.668400   +0.050107
  H    -1.298159   +0.230070   -1.282990
  H    +0.083462   -0.720455   +1.313066
  H    +0.288772   -1.516181   -0.248999
  H    +1.177748   +0.486798   -0.994882
  H    -1.658929   +1.904893   +0.832494
 10
 * E = -152.565256 hartree ; s =  0.1000 (fw10)
  C    -1.264315   -0.012030   -0.225156
  C    +0.103920   -0.545868   +0.233542
  O    +1.185066   +0.364565   -0.011198
  H    -1.501227   +1.148171   +0.414380
  H    -2.084773   -0.666121   +0.052261
  H    -1.298858   +0.233806   -1.282649
  H    +0.083450   -0.720477   +1.313167
  H    +0.288453   -1.516244   -0.249073
  H    +1.177775   +0.486855   -0.994896
  H    -1.656039   +1.890849   +0.824724
 10
 * E = -152.568429 hartree ; s =  0.2000 (fw20)
  C    -1.263462   -0.015797   -0.227167
  C    +0.103910   -0.545616   +0.233684
  O    +1.185094   +0.364560   -0.011207
  H    -1.510021   +1.190614   +0.437836
  H    -2.086922   -0.663466   +0.054783
  H    -1.299659   +0.238172   -1.282258
  H    +0.083413   -0.720473   +1.313288
  H    +0.288215   -1.516317   -0.249063
  H    +1.177801   +0.486919   -0.994906
  H    -1.654509   +1.883325   +0.820564
 10
 * E = -152.571932 hartree ; s =  0.3000 (fw30)
  C    -1.262380   -0.020675   -0.229784
  C    +0.103912   -0.545352   +0.233849
  O    +1.185130   +0.364563   -0.011217
  H    -1.518522   +1.231731   +0.460566
  H    -2.089717   -0.660125   +0.057977
  H    -1.300691   +0.243729   -1.281824
  H    +0.083297   -0.720396   +1.313440
  H    +0.288208   -1.516415   -0.248851
  H    +1.177820   +0.486994   -0.994910
  H    -1.655556   +1.888141   +0.823223
 10
 * E = -152.575212 hartree ; s =  0.4000 (fw40)
  C    -1.261176   -0.026308   -0.232833
  C    +0.103955   -0.545141   +0.234010
  O    +1.185171   +0.364584   -0.011228
  H    -1.525901   +1.267629   +0.480425
  H    -2.093021   -0.656326   +0.061583
  H    -1.301928   +0.250094   -1.281401
  H    +0.083023   -0.720175   +1.313615
  H    +0.288694   -1.516584   -0.248298
  H    +1.177827   +0.487074   -0.994914
  H    -1.659376   +1.906212   +0.833213
 10
 * E = -152.578302 hartree ; s =  0.5000 (fw50)
  C    -1.260019   -0.032034   -0.235977
  C    +0.104061   -0.545049   +0.234143
  O    +1.185211   +0.364625   -0.011243
  H    -1.532483   +1.299870   +0.498285
  H    -2.096414   -0.652487   +0.065117
  H    -1.303246   +0.256486   -1.280991
  H    +0.082553   -0.719773   +1.313798
  H    +0.289790   -1.516889   -0.247370
  H    +1.177823   +0.487151   -0.994922
  H    -1.664404   +1.930038   +0.846391
 10
 * E = -152.581188 hartree ; s =  0.6000 (fw60)
  C    -1.258954   -0.037681   -0.239133
  C    +0.104241   -0.545096   +0.234242
  O    +1.185245   +0.364688   -0.011258
  H    -1.538752   +1.330776   +0.515421
  H    -2.099737   -0.648706   +0.068447
  H    -1.304602   +0.262676   -1.280558
  H    +0.081895   -0.719172   +1.313992
  H    +0.291510   -1.517381   -0.246072
  H    +1.177809   +0.487218   -0.994934
  H    -1.669838   +1.955781   +0.860638
 10
 * E = -152.583855 hartree ; s =  0.7000 (fw70)
  C    -1.257990   -0.043216   -0.242285
  C    +0.104497   -0.545292   +0.234304
  O    +1.185268   +0.364780   -0.011272
  H    -1.544867   +1.361083   +0.532240
  H    -2.102946   -0.645013   +0.071541
  H    -1.305973   +0.268605   -1.280096
  H    +0.081056   -0.718362   +1.314206
  H    +0.293836   -1.518090   -0.244404
  H    +1.177789   +0.487273   -0.994954
  H    -1.675477   +1.982481   +0.875422
 10
 * E = -152.586301 hartree ; s =  0.8000 (fw80)
  C    -1.257128   -0.048623   -0.245430
  C    +0.104834   -0.545641   +0.234331
  O    +1.185274   +0.364901   -0.011288
  H    -1.550883   +1.391041   +0.548880
  H    -2.106019   -0.641436   +0.074389
  H    -1.307343   +0.274240   -1.279621
  H    +0.080054   -0.717338   +1.314440
  H    +0.296727   -1.519031   -0.242369
  H    +1.177770   +0.487309   -0.994981
  H    -1.681252   +2.009819   +0.890574
 10
 * E = -152.588528 hartree ; s =  0.9000 (fw90)
  C    -1.256360   -0.053895   -0.248563
  C    +0.105251   -0.546149   +0.234322
  O    +1.185257   +0.365055   -0.011303
  H    -1.556825   +1.420782   +0.565411
  H    -2.108944   -0.638005   +0.076987
  H    -1.308697   +0.279561   -1.279150
  H    +0.078909   -0.716097   +1.314695
  H    +0.300129   -1.520211   -0.239971
  H    +1.177763   +0.487322   -0.995017
  H    -1.687131   +2.037628   +0.905999
 10
 * E = -152.590546 hartree ; s =  1.0000 (fw100)
  C    -1.255674   -0.059023   -0.251680
  C    +0.105745   -0.546815   +0.234281
  O    +1.185210   +0.365240   -0.011319
  H    -1.562710   +1.450392   +0.581878
  H    -2.111706   -0.634747   +0.079330
  H    -1.310015   +0.284544   -1.278708
  H    +0.077645   -0.714647   +1.314969
  H    +0.303970   -1.521627   -0.237234
  H    +1.177775   +0.487297   -0.995064
  H    -1.693092   +2.065801   +0.921642
 10
 * E = -152.592367 hartree ; s =  1.1000 (fw110)
  C    -1.255053   -0.064007   -0.254776
  C    +0.106315   -0.547637   +0.234209
  O    +1.185125   +0.365461   -0.011338
  H    -1.568548   +1.479930   +0.598309
  H    -2.114294   -0.631686   +0.081416
  H    -1.311270   +0.289165   -1.278317
  H    +0.076293   -0.713010   +1.315257
  H    +0.308167   -1.523273   -0.234187
  H    +1.177816   +0.487227   -0.995127
  H    -1.699123   +2.094266   +0.937462
 10
 * E = -152.594003 hartree ; s =  1.2000 (fw120)
  C    -1.254478   -0.068847   -0.257850
  C    +0.106957   -0.548606   +0.234114
  O    +1.184991   +0.365718   -0.011358
  H    -1.574345   +1.509436   +0.614729
  H    -2.116693   -0.628847   +0.083243
  H    -1.312434   +0.293409   -1.277997
  H    +0.074879   -0.711215   +1.315559
  H    +0.312626   -1.525130   -0.230873
  H    +1.177897   +0.487096   -0.995205
  H    -1.705212   +2.122965   +0.953427
 10
 * E = -152.595469 hartree ; s =  1.3000 (fw130)
  C    -1.253928   -0.073546   -0.260895
  C    +0.107659   -0.549709   +0.233999
  O    +1.184797   +0.366008   -0.011385
  H    -1.580107   +1.538941   +0.631152
  H    -2.118893   -0.626249   +0.084804
  H    -1.313474   +0.297255   -1.277767
  H    +0.073440   -0.709300   +1.315867
  H    +0.317255   -1.527170   -0.227349
  H    +1.178026   +0.486882   -0.995304
  H    -1.711360   +2.151859   +0.969520
 10
 * E = -152.596778 hartree ; s =  1.4000 (fw140)
  C    -1.253381   -0.078108   -0.263909
  C    +0.108411   -0.550933   +0.233872
  O    +1.184535   +0.366328   -0.011419
  H    -1.585837   +1.568473   +0.647591
  H    -2.120881   -0.623913   +0.086096
  H    -1.314348   +0.300678   -1.277645
  H    +0.072003   -0.707315   +1.316178
  H    +0.321963   -1.529362   -0.223676
  H    +1.178212   +0.486564   -0.995428
  H    -1.717566   +2.180923   +0.985724
 10
 * E = -152.597942 hartree ; s =  1.5000 (fw150)
  C    -1.252809   -0.082544   -0.266884
  C    +0.109204   -0.552258   +0.233742
  O    +1.184196   +0.366676   -0.011463
  H    -1.591533   +1.598054   +0.664057
  H    -2.122647   -0.621857   +0.087113
  H    -1.315015   +0.303659   -1.277651
  H    +0.070597   -0.705319   +1.316488
  H    +0.326670   -1.531664   -0.219927
  H    +1.178459   +0.486111   -0.995582
  H    -1.723831   +2.210137   +1.002029
