 10
 * E = -152.597835 hartree ; s = -1.8000 (bw180)
  C    -1.308202   -0.254923   +0.097994
  C    +0.025123   +0.429544   -0.283744
  O    +1.188103   -0.345881   +0.036790
  H    -2.142153   +0.382333   -0.179622
  H    -1.412367   -1.206080   -0.414724
  H    -1.356685   -0.433426   +1.168683
  H    +0.051520   +0.593682   -1.364547
  H    +0.068694   +1.412956   +0.195642
  H    +1.113937   -0.497012   +1.013612
  H    +0.098483   +3.157822   +1.208559
 10
 * E = -152.597461 hartree ; s = -1.7000 (bw170)
  C    -1.308692   -0.253953   +0.098187
  C    +0.025037   +0.430099   -0.282394
  O    +1.188919   -0.344259   +0.036985
  H    -2.141738   +0.385009   -0.178245
  H    -1.414394   -1.204087   -0.416103
  H    -1.357380   -0.434073   +1.168601
  H    +0.051521   +0.596627   -1.362806
  H    +0.068104   +1.412235   +0.198751
  H    +1.111560   -0.502708   +1.012396
  H    +0.097701   +3.113365   +1.183533
 10
 * E = -152.597021 hartree ; s = -1.6000 (bw160)
  C    -1.309109   -0.252982   +0.098368
  C    +0.024947   +0.430664   -0.281048
  O    +1.189649   -0.342669   +0.037170
  H    -2.141304   +0.387523   -0.177069
  H    -1.416215   -1.202242   -0.417232
  H    -1.358005   -0.434430   +1.168553
  H    +0.051571   +0.599908   -1.361007
  H    +0.067500   +1.411336   +0.202124
  H    +1.109305   -0.508061   +1.011181
  H    +0.096905   +3.068805   +1.158516
 10
 * E = -152.596504 hartree ; s = -1.5000 (bw150)
  C    -1.309430   -0.252009   +0.098534
  C    +0.024858   +0.431240   -0.279725
  O    +1.190272   -0.341121   +0.037350
  H    -2.140846   +0.389871   -0.176055
  H    -1.417809   -1.200538   -0.418127
  H    -1.358500   -0.434517   +1.168534
  H    +0.051694   +0.603578   -1.359154
  H    +0.066885   +1.410242   +0.205789
  H    +1.107173   -0.512977   +1.010002
  H    +0.096095   +3.024140   +1.133517
 10
 * E = -152.595899 hartree ; s = -1.4000 (bw140)
  C    -1.309642   -0.251032   +0.098690
  C    +0.024775   +0.431826   -0.278433
  O    +1.190773   -0.339614   +0.037530
  H    -2.140370   +0.392048   -0.175166
  H    -1.419160   -1.198965   -0.418808
  H    -1.358826   -0.434370   +1.168546
  H    +0.051902   +0.607664   -1.357249
  H    +0.066269   +1.408946   +0.209758
  H    +1.105157   -0.517402   +1.008883
  H    +0.095267   +2.979375   +1.108549
 10
 * E = -152.595194 hartree ; s = -1.3000 (bw130)
  C    -1.309743   -0.250053   +0.098840
  C    +0.024704   +0.432421   -0.277182
  O    +1.191142   -0.338150   +0.037705
  H    -2.139887   +0.394046   -0.174378
  H    -1.420251   -1.197505   -0.419302
  H    -1.358972   -0.434036   +1.168585
  H    +0.052209   +0.612166   -1.355297
  H    +0.065674   +1.407459   +0.214018
  H    +1.103252   -0.521319   +1.007836
  H    +0.094424   +2.934525   +1.083620
 10
 * E = -152.594375 hartree ; s = -1.2000 (bw120)
  C    -1.309740   -0.249073   +0.098991
  C    +0.024655   +0.433024   -0.275977
  O    +1.191375   -0.336725   +0.037877
  H    -2.139417   +0.395852   -0.173675
  H    -1.421066   -1.196145   -0.419647
  H    -1.358968   -0.433567   +1.168650
  H    +0.052632   +0.617065   -1.353301
  H    +0.065120   +1.405818   +0.218527
  H    +1.101455   -0.524735   +1.006872
  H    +0.093567   +2.889601   +1.058746
 10
 * E = -152.593426 hartree ; s = -1.1000 (bw110)
  C    -1.309649   -0.248097   +0.099156
  C    +0.024641   +0.433641   -0.274819
  O    +1.191472   -0.335339   +0.038047
  H    -2.138980   +0.397458   -0.173043
  H    -1.421598   -1.194865   -0.419880
  H    -1.358856   -0.433029   +1.168742
  H    +0.053197   +0.622319   -1.351266
  H    +0.064627   +1.404097   +0.223222
  H    +1.099773   -0.527685   +1.005996
  H    +0.092695   +2.844616   +1.033939
 10
 * E = -152.592331 hartree ; s = -1.0000 (bw100)
  C    -1.309487   -0.247132   +0.099342
  C    +0.024678   +0.434283   -0.273706
  O    +1.191437   -0.333988   +0.038216
  H    -2.138595   +0.398857   -0.172479
  H    -1.421855   -1.193653   -0.420038
  H    -1.358694   -0.432481   +1.168862
  H    +0.053926   +0.627884   -1.349199
  H    +0.064205   +1.402410   +0.228006
  H    +1.098226   -0.530225   +1.005205
  H    +0.091810   +2.799569   +1.009198
 10
 * E = -152.591074 hartree ; s = -0.9000 (bw90)
  C    -1.309279   -0.246191   +0.099555
  C    +0.024780   +0.434968   -0.272632
  O    +1.191285   -0.332679   +0.038381
  H    -2.138274   +0.400050   -0.171980
  H    -1.421861   -1.192505   -0.420148
  H    -1.358546   -0.431974   +1.169006
  H    +0.054839   +0.633721   -1.347098
  H    +0.063850   +1.400912   +0.232778
  H    +1.096846   -0.532420   +1.004492
  H    +0.090909   +2.754461   +0.984525
 10
 * E = -152.589636 hartree ; s = -0.8000 (bw80)
  C    -1.309049   -0.245289   +0.099803
  C    +0.024959   +0.435707   -0.271586
  O    +1.191026   -0.331416   +0.038541
  H    -2.138023   +0.401046   -0.171547
  H    -1.421658   -1.191422   -0.420232
  H    -1.358458   -0.431550   +1.169178
  H    +0.055941   +0.639801   -1.344965
  H    +0.063545   +1.399803   +0.237424
  H    +1.095665   -0.534339   +1.003852
  H    +0.089997   +2.709291   +0.959914
 10
 * E = -152.587999 hartree ; s = -0.7000 (bw70)
  C    -1.308820   -0.244441   +0.100088
  C    +0.025226   +0.436520   -0.270558
  O    +1.190675   -0.330209   +0.038692
  H    -2.137837   +0.401863   -0.171188
  H    -1.421307   -1.190412   -0.420300
  H    -1.358463   -0.431241   +1.169378
  H    +0.057230   +0.646101   -1.342798
  H    +0.063263   +1.399358   +0.241862
  H    +1.094712   -0.536042   +1.003278
  H    +0.089072   +2.664065   +0.935356
 10
 * E = -152.586142 hartree ; s = -0.6000 (bw60)
  C    -1.308612   -0.243666   +0.100408
  C    +0.025585   +0.437406   -0.269543
  O    +1.190248   -0.329069   +0.038836
  H    -2.137700   +0.402525   -0.170914
  H    -1.420876   -1.189493   -0.420362
  H    -1.358571   -0.431065   +1.169600
  H    +0.058681   +0.652603   -1.340614
  H    +0.062980   +1.400030   +0.246107
  H    +1.094013   -0.537588   +1.002766
  H    +0.088139   +2.618801   +0.910852
 10
 * E = -152.584043 hartree ; s = -0.5000 (bw50)
  C    -1.308443   -0.242981   +0.100755
  C    +0.026027   +0.438295   -0.268567
  O    +1.189771   -0.328011   +0.038971
  H    -2.137589   +0.403055   -0.170738
  H    -1.420439   -1.188698   -0.420417
  H    -1.358769   -0.431023   +1.169842
  H    +0.060256   +0.659278   -1.338497
  H    +0.062703   +1.403075   +0.250637
  H    +1.093573   -0.539013   +1.002310
  H    +0.087196   +2.573596   +0.886439
 10
 * E = -152.581660 hartree ; s = -0.4000 (bw40)
  C    -1.308320   -0.242398   +0.101114
  C    +0.026514   +0.438851   -0.267794
  O    +1.189277   -0.327066   +0.039094
  H    -2.137486   +0.403475   -0.170665
  H    -1.420054   -1.188075   -0.420486
  H    -1.359020   -0.431098   +1.170088
  H    +0.061871   +0.665985   -1.336679
  H    +0.062555   +1.412492   +0.257498
  H    +1.093375   -0.540307   +1.001910
  H    +0.086263   +2.529224   +0.862522
 10
 * E = -152.578828 hartree ; s = -0.3000 (bw30)
  C    -1.308245   -0.241941   +0.101442
  C    +0.026942   +0.438392   -0.267608
  O    +1.188837   -0.326305   +0.039195
  H    -2.137389   +0.403776   -0.170671
  H    -1.419743   -1.187688   -0.420599
  H    -1.359254   -0.431233   +1.170300
  H    +0.063311   +0.672075   -1.335449
  H    +0.062802   +1.434576   +0.270190
  H    +1.093355   -0.541355   +1.001596
  H    +0.085422   +2.489465   +0.841119
 10
 * E = -152.575482 hartree ; s = -0.2000 (bw20)
  C    -1.308198   -0.241605   +0.101700
  C    +0.027234   +0.436832   -0.268101
  O    +1.188502   -0.325757   +0.039269
  H    -2.137317   +0.403974   -0.170701
  H    -1.419490   -1.187495   -0.420749
  H    -1.359439   -0.431359   +1.170458
  H    +0.064404   +0.676907   -1.334701
  H    +0.063467   +1.467620   +0.288227
  H    +1.093411   -0.542094   +1.001397
  H    +0.084755   +2.457949   +0.824164
 10
 * E = -152.572443 hartree ; s = -0.1000 (bw10)
  C    -1.308161   -0.241341   +0.101905
  C    +0.027428   +0.434658   -0.268994
  O    +1.188245   -0.325345   +0.039326
  H    -2.137272   +0.404113   -0.170730
  H    -1.419277   -1.187396   -0.420906
  H    -1.359587   -0.431459   +1.170580
  H    +0.065253   +0.680806   -1.334135
  H    +0.064353   +1.505597   +0.308723
  H    +1.093479   -0.542636   +1.001280
  H    +0.084219   +2.432671   +0.810569
 10
 * E = -152.571140 hartree ; s =  0.0000 (saddle)
  C    -1.308132   -0.241114   +0.102084
  C    +0.027565   +0.432121   -0.270126
  O    +1.188034   -0.324999   +0.039371
  H    -2.137245   +0.404225   -0.170748
  H    -1.419103   -1.187338   -0.421051
  H    -1.359726   -0.431544   +1.170692
  H    +0.065993   +0.684259   -1.333593
  H    +0.065344   +1.545791   +0.330321
  H    +1.093510   -0.543080   +1.001257
  H    +0.083769   +2.411361   +0.799125
 10
 * E = -152.572607 hartree ; s =  0.1000 (fw10)
  C    -1.308078   -0.240886   +0.102250
  C    +0.027673   +0.429327   -0.271398
  O    +1.187817   -0.324667   +0.039422
  H    -2.137211   +0.404332   -0.170768
  H    -1.418941   -1.187276   -0.421192
  H    -1.359850   -0.431628   +1.170794
  H    +0.066671   +0.687604   -1.333041
  H    +0.066388   +1.586971   +0.352483
  H    +1.093616   -0.543502   +1.001160
  H    +0.083372   +2.392464   +0.788934
 10
 * E = -152.576625 hartree ; s =  0.2000 (fw20)
  C    -1.308023   -0.240657   +0.102421
  C    +0.027762   +0.426094   -0.272909
  O    +1.187610   -0.324329   +0.039473
  H    -2.137178   +0.404446   -0.170782
  H    -1.418860   -1.187220   -0.421291
  H    -1.359986   -0.431708   +1.170909
  H    +0.067408   +0.691161   -1.332421
  H    +0.067497   +1.629303   +0.375219
  H    +1.093667   -0.543930   +1.001107
  H    +0.083057   +2.377294   +0.780769
 10
 * E = -152.581662 hartree ; s =  0.3000 (fw30)
  C    -1.307955   -0.240396   +0.102613
  C    +0.027837   +0.422051   -0.274825
  O    +1.187390   -0.323937   +0.039540
  H    -2.137118   +0.404603   -0.170797
  H    -1.418931   -1.187157   -0.421315
  H    -1.360135   -0.431788   +1.171049
  H    +0.068321   +0.695443   -1.331692
  H    +0.068686   +1.672590   +0.398433
  H    +1.093667   -0.544423   +1.001016
  H    +0.082887   +2.368908   +0.776282
 10
 * E = -152.586160 hartree ; s =  0.4000 (fw40)
  C    -1.307875   -0.240099   +0.102844
  C    +0.027893   +0.416684   -0.277400
  O    +1.187154   -0.323444   +0.039635
  H    -2.136965   +0.404878   -0.170818
  H    -1.419364   -1.187085   -0.421155
  H    -1.360268   -0.431842   +1.171237
  H    +0.069586   +0.701041   -1.330819
  H    +0.069944   +1.714322   +0.420734
  H    +1.093528   -0.545056   +1.000824
  H    +0.083007   +2.374479   +0.779373
 10
 * E = -152.590033 hartree ; s =  0.5000 (fw50)
  C    -1.307811   -0.239833   +0.103080
  C    +0.027903   +0.410511   -0.280412
  O    +1.186970   -0.322907   +0.039754
  H    -2.136633   +0.405350   -0.170847
  H    -1.420423   -1.187062   -0.420692
  H    -1.360280   -0.431782   +1.171463
  H    +0.071158   +0.707399   -1.329935
  H    +0.071148   +1.749961   +0.439692
  H    +1.093128   -0.545814   +1.000514
  H    +0.083416   +2.394483   +0.790320
 10
 * E = -152.593564 hartree ; s =  0.6000 (fw60)
  C    -1.307796   -0.239666   +0.103283
  C    +0.027857   +0.404322   -0.283510
  O    +1.186891   -0.322397   +0.039887
  H    -2.136102   +0.406043   -0.170861
  H    -1.422186   -1.187172   -0.419914
  H    -1.360111   -0.431547   +1.171711
  H    +0.072862   +0.713626   -1.329113
  H    +0.072302   +1.781955   +0.456679
  H    +1.092433   -0.546659   +1.000135
  H    +0.083929   +2.419896   +0.804242
 10
 * E = -152.596787 hartree ; s =  0.7000 (fw70)
  C    -1.307843   -0.239614   +0.103442
  C    +0.027749   +0.398286   -0.286628
  O    +1.186941   -0.321932   +0.040032
  H    -2.135388   +0.406972   -0.170839
  H    -1.424681   -1.187459   -0.418835
  H    -1.359749   -0.431102   +1.171990
  H    +0.074636   +0.719493   -1.328341
  H    +0.073451   +1.812903   +0.473107
  H    +1.091440   -0.547615   +0.999710
  H    +0.084473   +2.446844   +0.819044
 10
 * E = -152.599711 hartree ; s =  0.8000 (fw80)
  C    -1.307964   -0.239686   +0.103553
  C    +0.027583   +0.392436   -0.289763
  O    +1.187129   -0.321517   +0.040193
  H    -2.134504   +0.408137   -0.170755
  H    -1.427925   -1.187947   -0.417462
  H    -1.359196   -0.430422   +1.172296
  H    +0.076434   +0.724923   -1.327635
  H    +0.074608   +1.843474   +0.489330
  H    +1.090161   -0.548718   +0.999248
  H    +0.085031   +2.474516   +0.834289
 10
 * E = -152.602352 hartree ; s =  0.9000 (fw90)
  C    -1.308167   -0.239885   +0.103614
  C    +0.027360   +0.386798   -0.292911
  O    +1.187463   -0.321159   +0.040370
  H    -2.133474   +0.409530   -0.170580
  H    -1.431911   -1.188634   -0.415804
  H    -1.358462   -0.429495   +1.172635
  H    +0.078214   +0.729863   -1.327030
  H    +0.075784   +1.873848   +0.505439
  H    +1.088615   -0.550000   +0.998741
  H    +0.085599   +2.502686   +0.849860
